@<TRIPOS>MOLECULE
*****
 32 34 0 0 0
SMALL
GASTEIGER

@<TRIPOS>ATOM
      1 C         143.9039  139.4390  163.7961 C.ar    1  UNL1        0.1592
      2 C         144.0327  138.7641  162.4627 C.ar    1  UNL1        0.0532
      3 C         142.8712  138.0074  161.8899 C.ar    1  UNL1        0.0538
      4 C         141.5808  137.9256  162.6504 C.ar    1  UNL1        0.0180
      5 C         141.4520  138.6005  163.9837 C.ar    1  UNL1        0.0423
      6 C         140.3139  138.6923  164.9564 C.ar    1  UNL1        0.0967
      7 N         140.7720  139.5058  166.1304 N.ar    1  UNL1       -0.2493
      8 N         142.1933  139.9168  165.8833 N.ar    1  UNL1       -0.1662
      9 C         142.6136  139.3572  164.5566 C.ar    1  UNL1        0.1362
     10 N         143.0000  137.3325  160.5564 N.am    1  UNL1       -0.2791
     11 C         142.5862  138.0534  159.3078 C.2     1  UNL1        0.2672
     12 O         142.0437  139.4493  159.3926 O.2     1  UNL1       -0.2682
     13 H         143.3560  136.4163  160.5008 H       1  UNL1        0.1552
     14 C         142.7150  137.3785  157.9744 C.ar    1  UNL1        0.1347
     15 C         142.3209  138.1071  156.7239 C.ar    1  UNL1        0.0238
     16 C         142.4497  137.4321  155.3905 C.ar    1  UNL1        0.0032
     17 C         142.9725  136.0286  155.3077 C.ar    1  UNL1        0.0231
     18 C         143.3666  135.3001  156.5583 C.ar    1  UNL1        0.1527
     19 N         143.2378  135.9751  157.8916 N.ar    1  UNL1       -0.2368
     20 C         143.8895  133.8966  156.4755 C.3     1  UNL1        0.4348
     21 F         144.4123  132.4931  156.3927 F       1  UNL1       -0.1644
     22 F         144.2327  133.9383  157.9351 F       1  UNL1       -0.1644
     23 F         143.5463  133.8549  155.0159 F       1  UNL1       -0.1644
     24 C         145.6026  141.3997  163.6533 C.3     1  UNL1        0.2525
     25 O         145.0655  140.1958  164.3689 O.3     1  UNL1       -0.4698
     26 C         139.9527  139.8483  167.3393 C.3     1  UNL1        0.1299
     27 C         140.6032  140.4894  168.5292 C.3     1  UNL1        0.0532
     28 C         140.3245  139.9683  169.9079 C.3     1  UNL1        0.0904
     29 C         138.9166  140.4773  169.8157 C.3     1  UNL1        0.0294
     30 C         141.7324  139.4592  170.0000 C.3     1  UNL1        0.0294
     31 O         140.0458  139.4471  171.2865 O.3     1  UNL1       -0.3867
     32 H         139.1273  139.6451  171.5275 H       1  UNL1        0.2102
@<TRIPOS>BOND
     1    24    25    1
     2    25     1    1
     3     1     2   ar
     4     2     3   ar
     5     3    10    1
     6    10    11   am
     7    11    12    2
     8    11    14    1
     9    14    15   ar
    10    15    16   ar
    11    16    17   ar
    12    17    18   ar
    13    18    20    1
    14    20    21    1
    15    20    22    1
    16    20    23    1
    17    18    19   ar
    18     3     4   ar
    19     4     5   ar
    20     5     6   ar
    21     6     7   ar
    22     7    26    1
    23    26    27    1
    24    27    28    1
    25    28    29    1
    26    28    30    1
    27    28    31    1
    28     7     8   ar
    29     8     9   ar
    30     9     1   ar
    31    19    14   ar
    32     9     5   ar
    33    10    13    1
    34    31    32    1
@<TRIPOS>MOLECULE
*****
 32 34 0 0 0
SMALL
GASTEIGER

@<TRIPOS>ATOM
      1 C         143.8644  143.3007  163.4702 C.ar    1  UNL1        0.1592
      2 C         143.6451  143.8909  162.1088 C.ar    1  UNL1        0.0532
      3 C         142.2910  144.4101  161.7258 C.ar    1  UNL1        0.0538
      4 C         141.1562  144.3391  162.7042 C.ar    1  UNL1        0.0180
      5 C         141.3755  143.7489  164.0656 C.ar    1  UNL1        0.0423
      6 C         140.4544  143.5463  165.2320 C.ar    1  UNL1        0.0967
      7 N         141.2393  142.9018  166.3359 N.ar    1  UNL1       -0.2493
      8 N         142.6455  142.7061  165.8518 N.ar    1  UNL1       -0.1662
      9 C         142.7297  143.2297  164.4486 C.ar    1  UNL1        0.1362
     10 N         142.0716  145.0004  160.3643 N.am    1  UNL1       -0.2791
     11 C         141.7708  144.1056  159.1985 C.2     1  UNL1        0.2672
     12 O         141.6893  142.6207  159.3942 O.2     1  UNL1       -0.2682
     13 H         142.1251  145.9750  160.2358 H       1  UNL1        0.1552
     14 C         141.5514  144.6958  157.8371 C.ar    1  UNL1        0.1347
     15 C         142.3731  144.2245  156.6740 C.ar    1  UNL1        0.0238
     16 C         142.1536  144.8148  155.3126 C.ar    1  UNL1        0.0032
     17 C         141.1126  145.8763  155.1142 C.ar    1  UNL1        0.0231
     18 C         140.2909  146.3476  156.2773 C.ar    1  UNL1        0.1527
     19 N         140.5103  145.7573  157.6387 N.ar    1  UNL1       -0.2368
     20 C         139.2498  147.4091  156.0790 C.3     1  UNL1        0.4348
     21 F         138.2087  148.4706  155.8806 F       1  UNL1       -0.1644
     22 F         139.3204  147.2010  154.5951 F       1  UNL1       -0.1644
     23 F         139.1792  147.6172  157.5628 F       1  UNL1       -0.1644
     24 C         145.6385  141.4029  163.4370 C.3     1  UNL1        0.2525
     25 O         145.2186  142.7814  163.8532 O.3     1  UNL1       -0.4698
     26 C         140.7108  142.5201  167.6868 C.3     1  UNL1        0.1299
     27 C         141.5965  141.8059  168.6642 C.3     1  UNL1        0.0532
     28 C         142.1579  142.5422  169.8444 C.3     1  UNL1        0.0904
     29 C         140.9473  143.4274  169.8681 C.3     1  UNL1        0.0294
     30 C         143.3685  141.6569  169.8208 C.3     1  UNL1        0.0294
     31 O         142.7193  143.2784  171.0246 O.3     1  UNL1       -0.3867
     32 H         142.1022  143.9768  171.2934 H       1  UNL1        0.2102
@<TRIPOS>BOND
     1    24    25    1
     2    25     1    1
     3     1     2   ar
     4     2     3   ar
     5     3    10    1
     6    10    11   am
     7    11    12    2
     8    11    14    1
     9    14    15   ar
    10    15    16   ar
    11    16    17   ar
    12    17    18   ar
    13    18    20    1
    14    20    21    1
    15    20    22    1
    16    20    23    1
    17    18    19   ar
    18     3     4   ar
    19     4     5   ar
    20     5     6   ar
    21     6     7   ar
    22     7    26    1
    23    26    27    1
    24    27    28    1
    25    28    29    1
    26    28    30    1
    27    28    31    1
    28     7     8   ar
    29     8     9   ar
    30     9     1   ar
    31    19    14   ar
    32     9     5   ar
    33    10    13    1
    34    31    32    1
@<TRIPOS>MOLECULE
*****
 32 34 0 0 0
SMALL
GASTEIGER

@<TRIPOS>ATOM
      1 C         142.8978  142.8907  162.4652 C.ar    1  UNL1        0.1592
      2 C         142.7471  143.6431  161.1763 C.ar    1  UNL1        0.0532
      3 C         141.6399  144.6423  161.0162 C.ar    1  UNL1        0.0538
      4 C         140.6833  144.8892  162.1450 C.ar    1  UNL1        0.0180
      5 C         140.8341  144.1368  163.4339 C.ar    1  UNL1        0.0423
      6 C         140.0494  144.1680  164.7119 C.ar    1  UNL1        0.0967
      7 N         140.6717  143.1880  165.6619 N.ar    1  UNL1       -0.2493
      8 N         141.8409  142.5512  164.9709 N.ar    1  UNL1       -0.1662
      9 C         141.9413  143.1375  163.5940 C.ar    1  UNL1        0.1362
     10 N         141.4892  145.3947  159.7273 N.am    1  UNL1       -0.2791
     11 C         140.5093  144.9235  158.6940 C.2     1  UNL1        0.2672
     12 O         139.6801  143.7000  158.9495 O.2     1  UNL1       -0.2682
     13 H         142.0334  146.1978  159.5596 H       1  UNL1        0.1552
     14 C         140.3586  145.6759  157.4051 C.ar    1  UNL1        0.1347
     15 C         141.0013  145.1559  156.1535 C.ar    1  UNL1        0.0238
     16 C         140.8505  145.9084  154.8646 C.ar    1  UNL1        0.0032
     17 C         140.0571  147.1808  154.8274 C.ar    1  UNL1        0.0231
     18 C         139.4143  147.7008  156.0790 C.ar    1  UNL1        0.1527
     19 N         139.5651  146.9483  157.3678 N.ar    1  UNL1       -0.2368
     20 C         138.6209  148.9732  156.0418 C.3     1  UNL1        0.4348
     21 F         137.8274  150.2456  156.0045 F       1  UNL1       -0.1644
     22 F         138.2629  148.7923  157.4871 F       1  UNL1       -0.1644
     23 F         138.9788  149.1540  154.5964 F       1  UNL1       -0.1644
     24 C         145.1766  142.2052  163.5079 C.3     1  UNL1        0.2525
     25 O         144.0050  141.8915  162.6252 O.3     1  UNL1       -0.4698
     26 C         140.2065  142.8961  167.0577 C.3     1  UNL1        0.1299
     27 C         140.7671  141.7227  167.8051 C.3     1  UNL1        0.0532
     28 C         139.8474  140.7908  168.5370 C.3     1  UNL1        0.0904
     29 C         139.7684  139.9145  167.3223 C.3     1  UNL1        0.0294
     30 C         139.9264  141.6671  169.7519 C.3     1  UNL1        0.0294
     31 O         138.9276  139.8590  169.2690 O.3     1  UNL1       -0.3867
     32 H         138.6812  139.1238  168.6861 H       1  UNL1        0.2102
@<TRIPOS>BOND
     1    24    25    1
     2    25     1    1
     3     1     2   ar
     4     2     3   ar
     5     3    10    1
     6    10    11   am
     7    11    12    2
     8    11    14    1
     9    14    15   ar
    10    15    16   ar
    11    16    17   ar
    12    17    18   ar
    13    18    20    1
    14    20    21    1
    15    20    22    1
    16    20    23    1
    17    18    19   ar
    18     3     4   ar
    19     4     5   ar
    20     5     6   ar
    21     6     7   ar
    22     7    26    1
    23    26    27    1
    24    27    28    1
    25    28    29    1
    26    28    30    1
    27    28    31    1
    28     7     8   ar
    29     8     9   ar
    30     9     1   ar
    31    19    14   ar
    32     9     5   ar
    33    10    13    1
    34    31    32    1
@<TRIPOS>MOLECULE
*****
 32 34 0 0 0
SMALL
GASTEIGER

@<TRIPOS>ATOM
      1 C         143.9849  140.3453  161.8893 C.ar    1  UNL1        0.1592
      2 C         144.0741  139.2236  160.8974 C.ar    1  UNL1        0.0532
      3 C         142.8405  138.4609  160.5149 C.ar    1  UNL1        0.0538
      4 C         141.5176  138.8198  161.1243 C.ar    1  UNL1        0.0180
      5 C         141.4285  139.9414  162.1162 C.ar    1  UNL1        0.0423
      6 C         140.2720  140.5186  162.8773 C.ar    1  UNL1        0.0967
      7 N         140.7909  141.6381  163.7302 N.ar    1  UNL1       -0.2493
      8 N         142.2681  141.7528  163.4963 N.ar    1  UNL1       -0.1662
      9 C         142.6622  140.7041  162.4987 C.ar    1  UNL1        0.1362
     10 N         142.9296  137.3392  159.5228 N.am    1  UNL1       -0.2791
     11 C         142.7038  137.6080  158.0645 C.2     1  UNL1        0.2672
     12 O         142.3888  138.9984  157.5981 O.2     1  UNL1       -0.2682
     13 H         143.1364  136.4266  159.8289 H       1  UNL1        0.1552
     14 C         142.7929  136.4864  157.0725 C.ar    1  UNL1        0.1347
     15 C         142.6161  136.7637  155.6090 C.ar    1  UNL1        0.0238
     16 C         142.7052  135.6419  154.6171 C.ar    1  UNL1        0.0032
     17 C         142.9712  134.2430  155.0886 C.ar    1  UNL1        0.0231
     18 C         143.1481  133.9659  156.5522 C.ar    1  UNL1        0.1527
     19 N         143.0589  135.0875  157.5441 N.ar    1  UNL1       -0.2368
     20 C         143.4140  132.5670  157.0238 C.3     1  UNL1        0.4348
     21 F         143.6800  131.1681  157.4953 F       1  UNL1       -0.1644
     22 F         144.6920  133.0250  157.6617 F       1  UNL1       -0.1644
     23 F         142.1361  132.1089  156.3858 F       1  UNL1       -0.1644
     24 C         145.6320  141.1926  163.7112 C.3     1  UNL1        0.2525
     25 O         145.2186  141.1080  162.2718 O.3     1  UNL1       -0.4698
     26 C         139.9757  142.4929  164.6548 C.3     1  UNL1        0.1299
     27 C         139.6897  143.9216  164.2986 C.3     1  UNL1        0.0532
     28 C         138.5420  144.2531  163.3914 C.3     1  UNL1        0.0904
     29 C         139.4134  145.2158  162.6407 C.3     1  UNL1        0.0294
     30 C         137.6706  143.2903  164.1422 C.3     1  UNL1        0.0294
     31 O         137.3943  144.5845  162.4843 O.3     1  UNL1       -0.3867
     32 H         137.6781  145.2429  161.8310 H       1  UNL1        0.2102
@<TRIPOS>BOND
     1    24    25    1
     2    25     1    1
     3     1     2   ar
     4     2     3   ar
     5     3    10    1
     6    10    11   am
     7    11    12    2
     8    11    14    1
     9    14    15   ar
    10    15    16   ar
    11    16    17   ar
    12    17    18   ar
    13    18    20    1
    14    20    21    1
    15    20    22    1
    16    20    23    1
    17    18    19   ar
    18     3     4   ar
    19     4     5   ar
    20     5     6   ar
    21     6     7   ar
    22     7    26    1
    23    26    27    1
    24    27    28    1
    25    28    29    1
    26    28    30    1
    27    28    31    1
    28     7     8   ar
    29     8     9   ar
    30     9     1   ar
    31    19    14   ar
    32     9     5   ar
    33    10    13    1
    34    31    32    1
@<TRIPOS>MOLECULE
*****
 32 34 0 0 0
SMALL
GASTEIGER

@<TRIPOS>ATOM
      1 C         137.8116  140.8006  162.6840 C.ar    1  UNL1        0.1592
      2 C         138.1016  140.1765  161.3512 C.ar    1  UNL1        0.0532
      3 C         138.8685  138.8896  161.2766 C.ar    1  UNL1        0.0538
      4 C         139.3454  138.2266  162.5349 C.ar    1  UNL1        0.0180
      5 C         139.0554  138.8507  163.8677 C.ar    1  UNL1        0.0423
      6 C         139.3950  138.4316  165.2673 C.ar    1  UNL1        0.0967
      7 N         138.8380  139.4596  166.2069 N.ar    1  UNL1       -0.2493
      8 N         138.1541  140.5140  165.3880 N.ar    1  UNL1       -0.1662
      9 C         138.2885  140.1377  163.9422 C.ar    1  UNL1        0.1362
     10 N         139.1585  138.2655  159.9437 N.am    1  UNL1       -0.2791
     11 C         140.3213  138.7467  159.1273 C.2     1  UNL1        0.2672
     12 O         141.1940  139.8520  159.6438 O.2     1  UNL1       -0.2682
     13 H         138.5857  137.5401  159.6047 H       1  UNL1        0.1552
     14 C         140.6113  138.1227  157.7945 C.ar    1  UNL1        0.1347
     15 C         139.7630  138.4648  156.6057 C.ar    1  UNL1        0.0238
     16 C         140.0532  137.8406  155.2728 C.ar    1  UNL1        0.0032
     17 C         141.1915  136.8745  155.1289 C.ar    1  UNL1        0.0231
     18 C         142.0398  136.5325  156.3178 C.ar    1  UNL1        0.1527
     19 N         141.7497  137.1565  157.6506 N.ar    1  UNL1       -0.2368
     20 C         143.1781  135.5663  156.1738 C.3     1  UNL1        0.4348
     21 F         144.3165  134.6002  156.0299 F       1  UNL1       -0.1644
     22 F         142.2445  134.4252  156.4495 F       1  UNL1       -0.1644
     23 F         144.1118  136.7075  155.8982 F       1  UNL1       -0.1644
     24 C         137.7742  143.3861  162.9360 C.3     1  UNL1        0.2525
     25 O         137.0447  142.0876  162.7586 O.3     1  UNL1       -0.4698
     26 C         138.9458  139.4372  167.7029 C.3     1  UNL1        0.1299
     27 C         140.1221  140.0762  168.3797 C.3     1  UNL1        0.0532
     28 C         140.2268  140.0592  169.8760 C.3     1  UNL1        0.0904
     29 C         138.7872  140.4667  169.9814 C.3     1  UNL1        0.0294
     30 C         141.6665  139.6516  169.7705 C.3     1  UNL1        0.0294
     31 O         140.3315  140.0421  171.3722 O.3     1  UNL1       -0.3867
     32 H         139.4764  140.2869  171.7590 H       1  UNL1        0.2102
@<TRIPOS>BOND
     1    24    25    1
     2    25     1    1
     3     1     2   ar
     4     2     3   ar
     5     3    10    1
     6    10    11   am
     7    11    12    2
     8    11    14    1
     9    14    15   ar
    10    15    16   ar
    11    16    17   ar
    12    17    18   ar
    13    18    20    1
    14    20    21    1
    15    20    22    1
    16    20    23    1
    17    18    19   ar
    18     3     4   ar
    19     4     5   ar
    20     5     6   ar
    21     6     7   ar
    22     7    26    1
    23    26    27    1
    24    27    28    1
    25    28    29    1
    26    28    30    1
    27    28    31    1
    28     7     8   ar
    29     8     9   ar
    30     9     1   ar
    31    19    14   ar
    32     9     5   ar
    33    10    13    1
    34    31    32    1
@<TRIPOS>MOLECULE
*****
 32 34 0 0 0
SMALL
GASTEIGER

@<TRIPOS>ATOM
      1 C         138.9624  141.9542  160.8348 C.ar    1  UNL1        0.1592
      2 C         138.9938  141.7337  162.3182 C.ar    1  UNL1        0.0532
      3 C         139.4800  142.8224  163.2282 C.ar    1  UNL1        0.0538
      4 C         139.9348  144.1318  162.6549 C.ar    1  UNL1        0.0180
      5 C         139.9033  144.3524  161.1716 C.ar    1  UNL1        0.0423
      6 C         140.2860  145.5290  160.3235 C.ar    1  UNL1        0.0967
      7 N         140.0364  145.1674  158.8893 N.ar    1  UNL1       -0.2493
      8 N         139.4994  143.7673  158.8510 N.ar    1  UNL1       -0.1662
      9 C         139.4172  143.2636  160.2615 C.ar    1  UNL1        0.1362
     10 N         139.5114  142.6017  164.7116 N.am    1  UNL1       -0.2791
     11 C         140.5453  141.6969  165.3136 C.2     1  UNL1        0.2672
     12 O         141.5478  141.0127  164.4322 O.2     1  UNL1       -0.2682
     13 H         138.8534  143.0508  165.2901 H       1  UNL1        0.1552
     14 C         140.5767  141.4763  166.7969 C.ar    1  UNL1        0.1347
     15 C         139.6993  140.4304  167.4183 C.ar    1  UNL1        0.0238
     16 C         139.7308  140.2098  168.9018 C.ar    1  UNL1        0.0032
     17 C         140.6397  141.0351  169.7637 C.ar    1  UNL1        0.0231
     18 C         141.5170  142.0811  169.1421 C.ar    1  UNL1        0.1527
     19 N         141.4855  142.3016  167.6588 N.ar    1  UNL1       -0.2368
     20 C         142.4259  142.9064  170.0040 C.3     1  UNL1        0.4348
     21 F         143.3347  143.7317  170.8659 F       1  UNL1       -0.1644
     22 F         143.4594  141.8204  169.9540 F       1  UNL1       -0.1644
     23 F         141.3923  143.9923  170.0540 F       1  UNL1       -0.1644
     24 C         137.5007  139.8447  160.4310 C.3     1  UNL1        0.2525
     25 O         138.4762  140.8654  159.9248 O.3     1  UNL1       -0.4698
     26 C         140.2808  146.0507  157.7019 C.3     1  UNL1        0.1299
     27 C         140.0882  145.5131  156.3149 C.3     1  UNL1        0.0532
     28 C         138.8598  145.8755  155.5340 C.3     1  UNL1        0.0904
     29 C         138.5583  144.4201  155.3327 C.3     1  UNL1        0.0294
     30 C         139.1613  147.3310  155.7353 C.3     1  UNL1        0.0294
     31 O         137.6314  146.2380  154.7531 O.3     1  UNL1       -0.3867
     32 H         137.1828  145.4287  154.4620 H       1  UNL1        0.2102
@<TRIPOS>BOND
     1    24    25    1
     2    25     1    1
     3     1     2   ar
     4     2     3   ar
     5     3    10    1
     6    10    11   am
     7    11    12    2
     8    11    14    1
     9    14    15   ar
    10    15    16   ar
    11    16    17   ar
    12    17    18   ar
    13    18    20    1
    14    20    21    1
    15    20    22    1
    16    20    23    1
    17    18    19   ar
    18     3     4   ar
    19     4     5   ar
    20     5     6   ar
    21     6     7   ar
    22     7    26    1
    23    26    27    1
    24    27    28    1
    25    28    29    1
    26    28    30    1
    27    28    31    1
    28     7     8   ar
    29     8     9   ar
    30     9     1   ar
    31    19    14   ar
    32     9     5   ar
    33    10    13    1
    34    31    32    1
@<TRIPOS>MOLECULE
*****
 32 34 0 0 0
SMALL
GASTEIGER

@<TRIPOS>ATOM
      1 C         138.7339  142.5837  162.7702 C.ar    1  UNL1        0.1592
      2 C         138.7603  143.3682  161.4920 C.ar    1  UNL1        0.0532
      3 C         139.8911  144.3141  161.2157 C.ar    1  UNL1        0.0538
      4 C         140.9956  144.4758  162.2178 C.ar    1  UNL1        0.0180
      5 C         140.9692  143.6913  163.4960 C.ar    1  UNL1        0.0423
      6 C         141.9106  143.6417  164.6628 C.ar    1  UNL1        0.0967
      7 N         141.3616  142.6650  165.6601 N.ar    1  UNL1       -0.2493
      8 N         140.0809  142.1110  165.1097 N.ar    1  UNL1       -0.1662
      9 C         139.8384  142.7453  163.7723 C.ar    1  UNL1        0.1362
     10 N         139.9175  145.0986  159.9374 N.am    1  UNL1       -0.2791
     11 C         140.3210  144.4312  158.6561 C.2     1  UNL1        0.2672
     12 O         140.6982  142.9794  158.6530 O.2     1  UNL1       -0.2682
     13 H         139.6699  146.0515  159.9394 H       1  UNL1        0.1552
     14 C         140.3474  145.2156  157.3778 C.ar    1  UNL1        0.1347
     15 C         141.1438  144.7173  156.2084 C.ar    1  UNL1        0.0238
     16 C         141.1701  145.5018  154.9301 C.ar    1  UNL1        0.0032
     17 C         140.4001  146.7845  154.8212 C.ar    1  UNL1        0.0231
     18 C         139.6037  147.2827  155.9907 C.ar    1  UNL1        0.1527
     19 N         139.5774  146.4982  157.2689 N.ar    1  UNL1       -0.2368
     20 C         138.8337  148.5653  155.8819 C.3     1  UNL1        0.4348
     21 F         138.0637  149.8480  155.7730 F       1  UNL1       -0.1644
     22 F         139.2129  148.6701  154.4344 F       1  UNL1       -0.1644
     23 F         138.4544  148.4605  157.3293 F       1  UNL1       -0.1644
     24 C         137.8214  140.1573  162.9428 C.3     1  UNL1        0.2525
     25 O         137.6031  141.6377  163.0465 O.3     1  UNL1       -0.4698
     26 C         141.9840  142.3054  166.9766 C.3     1  UNL1        0.1299
     27 C         141.1876  142.4295  168.2416 C.3     1  UNL1        0.0532
     28 C         141.8265  142.9882  169.4784 C.3     1  UNL1        0.0904
     29 C         143.1111  142.2985  169.1264 C.3     1  UNL1        0.0294
     30 C         140.5419  143.6780  169.8304 C.3     1  UNL1        0.0294
     31 O         142.4654  143.5470  170.7152 O.3     1  UNL1       -0.3867
     32 H         143.3864  143.2469  170.7671 H       1  UNL1        0.2102
@<TRIPOS>BOND
     1    24    25    1
     2    25     1    1
     3     1     2   ar
     4     2     3   ar
     5     3    10    1
     6    10    11   am
     7    11    12    2
     8    11    14    1
     9    14    15   ar
    10    15    16   ar
    11    16    17   ar
    12    17    18   ar
    13    18    20    1
    14    20    21    1
    15    20    22    1
    16    20    23    1
    17    18    19   ar
    18     3     4   ar
    19     4     5   ar
    20     5     6   ar
    21     6     7   ar
    22     7    26    1
    23    26    27    1
    24    27    28    1
    25    28    29    1
    26    28    30    1
    27    28    31    1
    28     7     8   ar
    29     8     9   ar
    30     9     1   ar
    31    19    14   ar
    32     9     5   ar
    33    10    13    1
    34    31    32    1
@<TRIPOS>MOLECULE
*****
 32 34 0 0 0
SMALL
GASTEIGER

@<TRIPOS>ATOM
      1 C         144.3582  141.3401  163.0210 C.ar    1  UNL1        0.1592
      2 C         144.4328  140.7568  161.6411 C.ar    1  UNL1        0.0532
      3 C         143.9523  139.3581  161.3911 C.ar    1  UNL1        0.0538
      4 C         143.3972  138.5425  162.5211 C.ar    1  UNL1        0.0180
      5 C         143.3226  139.1258  163.9010 C.ar    1  UNL1        0.0423
      6 C         142.8283  138.5660  165.2019 C.ar    1  UNL1        0.0967
      7 N         143.0034  139.6188  166.2559 N.ar    1  UNL1       -0.2493
      8 N         143.6058  140.8293  165.6064 N.ar    1  UNL1       -0.1662
      9 C         143.8031  140.5246  164.1510 C.ar    1  UNL1        0.1362
     10 N         144.0269  138.7748  160.0111 N.am    1  UNL1       -0.2791
     11 C         142.8354  138.8433  159.1025 C.2     1  UNL1        0.2672
     12 O         141.5693  139.4951  159.5738 O.2     1  UNL1       -0.2682
     13 H         144.8579  138.3470  159.7018 H       1  UNL1        0.1552
     14 C         142.9099  138.2600  157.7226 C.ar    1  UNL1        0.1347
     15 C         143.1644  139.1523  156.5440 C.ar    1  UNL1        0.0238
     16 C         143.2389  138.5688  155.1640 C.ar    1  UNL1        0.0032
     17 C         143.0591  137.0933  154.9627 C.ar    1  UNL1        0.0231
     18 C         142.8046  136.2012  156.1414 C.ar    1  UNL1        0.1527
     19 N         142.7301  136.7845  157.5213 N.ar    1  UNL1       -0.2368
     20 C         142.6248  134.7257  155.9402 C.3     1  UNL1        0.4348
     21 F         142.4449  133.2502  155.7389 F       1  UNL1       -0.1644
     22 F         141.1679  134.9420  155.6559 F       1  UNL1       -0.1644
     23 F         144.0816  134.5093  156.2244 F       1  UNL1       -0.1644
     24 C         144.0308  143.9070  162.7884 C.3     1  UNL1        0.2525
     25 O         144.8387  142.7389  163.2710 O.3     1  UNL1       -0.4698
     26 C         142.6398  139.4848  167.7050 C.3     1  UNL1        0.1299
     27 C         142.5989  140.6999  168.5835 C.3     1  UNL1        0.0532
     28 C         142.6583  140.5495  170.0748 C.3     1  UNL1        0.0904
     29 C         142.4501  139.0708  169.9340 C.3     1  UNL1        0.0294
     30 C         142.8665  142.0283  170.2155 C.3     1  UNL1        0.0294
     31 O         142.7177  140.3992  171.5661 O.3     1  UNL1       -0.3867
     32 H         142.6036  139.4652  171.8017 H       1  UNL1        0.2102
@<TRIPOS>BOND
     1    24    25    1
     2    25     1    1
     3     1     2   ar
     4     2     3   ar
     5     3    10    1
     6    10    11   am
     7    11    12    2
     8    11    14    1
     9    14    15   ar
    10    15    16   ar
    11    16    17   ar
    12    17    18   ar
    13    18    20    1
    14    20    21    1
    15    20    22    1
    16    20    23    1
    17    18    19   ar
    18     3     4   ar
    19     4     5   ar
    20     5     6   ar
    21     6     7   ar
    22     7    26    1
    23    26    27    1
    24    27    28    1
    25    28    29    1
    26    28    30    1
    27    28    31    1
    28     7     8   ar
    29     8     9   ar
    30     9     1   ar
    31    19    14   ar
    32     9     5   ar
    33    10    13    1
    34    31    32    1
@<TRIPOS>MOLECULE
*****
 32 34 0 0 0
SMALL
GASTEIGER

@<TRIPOS>ATOM
      1 C         143.4792  142.8037  160.5364 C.ar    1  UNL1        0.1592
      2 C         143.6928  142.4077  161.9673 C.ar    1  UNL1        0.0532
      3 C         142.8579  143.0258  163.0492 C.ar    1  UNL1        0.0538
      4 C         141.8092  144.0401  162.7002 C.ar    1  UNL1        0.0180
      5 C         141.5956  144.4361  161.2693 C.ar    1  UNL1        0.0423
      6 C         140.6444  145.4014  160.6264 C.ar    1  UNL1        0.0967
      7 N         140.8916  145.3799  159.1471 N.ar    1  UNL1       -0.2493
      8 N         141.9955  144.4012  158.8757 N.ar    1  UNL1       -0.1662
      9 C         142.4306  143.8179  160.1874 C.ar    1  UNL1        0.1362
     10 N         143.0715  142.6298  164.4802 N.am    1  UNL1       -0.2791
     11 C         142.2105  141.5703  165.1017 C.2     1  UNL1        0.2672
     12 O         141.1359  140.9068  164.2923 O.2     1  UNL1       -0.2682
     13 H         143.7768  143.0652  165.0114 H       1  UNL1        0.1552
     14 C         142.4241  141.1743  166.5326 C.ar    1  UNL1        0.1347
     15 C         142.3387  139.7309  166.9321 C.ar    1  UNL1        0.0238
     16 C         142.5523  139.3350  168.3631 C.ar    1  UNL1        0.0032
     17 C         142.8513  140.3823  169.3945 C.ar    1  UNL1        0.0231
     18 C         142.9367  141.8256  168.9949 C.ar    1  UNL1        0.1527
     19 N         142.7231  142.2215  167.5640 N.ar    1  UNL1       -0.2368
     20 C         143.2357  142.8729  170.0263 C.3     1  UNL1        0.4348
     21 F         143.5346  143.9201  171.0577 F       1  UNL1       -0.1644
     22 F         141.8136  143.3454  169.9587 F       1  UNL1       -0.1644
     23 F         144.6577  142.4003  170.0939 F       1  UNL1       -0.1644
     24 C         144.0051  140.8010  158.9671 C.3     1  UNL1        0.2525
     25 O         144.3142  142.1855  159.4544 O.3     1  UNL1       -0.4698
     26 C         140.1629  146.1941  158.1194 C.3     1  UNL1        0.1299
     27 C         140.3931  145.9390  156.6593 C.3     1  UNL1        0.0532
     28 C         139.2361  145.9491  155.7047 C.3     1  UNL1        0.0904
     29 C         139.5223  147.3835  155.3728 C.3     1  UNL1        0.0294
     30 C         138.9499  144.5146  156.0366 C.3     1  UNL1        0.0294
     31 O         138.0791  145.9591  154.7501 O.3     1  UNL1       -0.3867
     32 H         138.0042  146.8358  154.3420 H       1  UNL1        0.2102
@<TRIPOS>BOND
     1    24    25    1
     2    25     1    1
     3     1     2   ar
     4     2     3   ar
     5     3    10    1
     6    10    11   am
     7    11    12    2
     8    11    14    1
     9    14    15   ar
    10    15    16   ar
    11    16    17   ar
    12    17    18   ar
    13    18    20    1
    14    20    21    1
    15    20    22    1
    16    20    23    1
    17    18    19   ar
    18     3     4   ar
    19     4     5   ar
    20     5     6   ar
    21     6     7   ar
    22     7    26    1
    23    26    27    1
    24    27    28    1
    25    28    29    1
    26    28    30    1
    27    28    31    1
    28     7     8   ar
    29     8     9   ar
    30     9     1   ar
    31    19    14   ar
    32     9     5   ar
    33    10    13    1
    34    31    32    1
