@<TRIPOS>MOLECULE
*****
 35 38 0 0 0
SMALL
GASTEIGER

@<TRIPOS>ATOM
      1 C         144.1772  141.7979  161.8788 C.3     1  UNL1        0.1493
      2 C         144.2835  142.4965  160.5558 C.3     1  UNL1        0.1040
      3 N         144.1537  141.7147  159.2822 N.3     1  UNL1       -0.2668
      4 C         143.9176  140.2342  159.3317 C.3     1  UNL1        0.0742
      5 C         143.8113  139.5356  160.6548 C.3     1  UNL1        0.0397
      6 C         143.9411  140.3174  161.9284 C.3     1  UNL1        0.1052
      7 N         143.8348  139.6187  163.2515 N.am    1  UNL1       -0.2767
      8 C         145.0405  139.4999  164.1359 C.3     1  UNL1        0.1149
      9 C         142.5228  139.0389  163.6902 C.2     1  UNL1        0.2301
     10 O         141.3171  139.1578  162.8058 O.2     1  UNL1       -0.2745
     11 C         142.4165  138.3402  165.0133 C.3     1  UNL1        0.1116
     12 C         141.9922  139.1037  166.2327 C.ar    1  UNL1       -0.0130
     13 C         142.9593  139.3146  167.3597 C.ar    1  UNL1       -0.0022
     14 C         142.5350  140.0781  168.5792 C.ar    1  UNL1        0.0190
     15 C         141.1436  140.6308  168.6715 C.ar    1  UNL1        0.0862
     16 C         140.1764  140.4199  167.5444 C.ar    1  UNL1        0.0190
     17 C         140.6007  139.6564  166.3250 C.ar    1  UNL1       -0.0022
     18 N         140.7192  141.3943  169.8909 N.ar    1  UNL1       -0.1886
     19 C         139.7868  142.5690  169.9155 C.ar    1  UNL1        0.2258
     20 N         139.6441  143.0179  171.3396 N.ar    1  UNL1       -0.1045
     21 N         140.4884  142.1206  172.1952 N.ar    1  UNL1       -0.0222
     22 N         141.1529  141.1172  171.2998 N.ar    1  UNL1       -0.0385
     23 C         144.0259  144.0531  163.1599 C.3     1  UNL1        0.1741
     24 O         144.3070  142.5797  163.1524 O.3     1  UNL1       -0.3505
     25 C         144.2600  142.4134  157.9591 C.3     1  UNL1        0.0992
     26 C         145.4821  142.2282  157.1092 C.ar    1  UNL1       -0.0062
     27 C         145.3991  141.4345  155.8391 C.ar    1  UNL1       -0.0030
     28 C         146.6212  141.2493  154.9892 C.ar    1  UNL1        0.0036
     29 C         147.9262  141.8579  155.4095 C.ar    1  UNL1        0.0714
     30 C         148.0092  142.6516  156.6796 C.ar    1  UNL1        0.0036
     31 C         146.7871  142.8367  157.5294 C.ar    1  UNL1       -0.0030
     32 C         149.1483  141.6727  154.5597 C.3     1  UNL1        0.4186
     33 F         150.3704  141.4875  153.7098 F       1  UNL1       -0.1659
     34 F         148.2786  141.3972  153.3690 F       1  UNL1       -0.1659
     35 F         150.0181  141.9482  155.7503 F       1  UNL1       -0.1659
@<TRIPOS>BOND
     1    23    24    1
     2     1    24    1
     3     1     2    1
     4     2     3    1
     5     3    25    1
     6    25    26    1
     7    26    27   ar
     8    27    28   ar
     9    28    29   ar
    10    29    32    1
    11    32    33    1
    12    32    34    1
    13    32    35    1
    14    29    30   ar
    15    30    31   ar
    16     3     4    1
    17     4     5    1
    18     5     6    1
    19     6     7    1
    20     7     8    1
    21     7     9   am
    22     9    10    2
    23     9    11    1
    24    11    12    1
    25    12    13   ar
    26    13    14   ar
    27    14    15   ar
    28    15    18    1
    29    18    19   ar
    30    19    20   ar
    31    20    21   ar
    32    21    22   ar
    33    15    16   ar
    34    16    17   ar
    35     6     1    1
    36    17    12   ar
    37    31    26   ar
    38    22    18   ar
@<TRIPOS>MOLECULE
*****
 35 38 0 0 0
SMALL
GASTEIGER

@<TRIPOS>ATOM
      1 C         141.6346  138.0716  161.5851 C.3     1  UNL1        0.1493
      2 C         142.4646  137.8340  160.3585 C.3     1  UNL1        0.1040
      3 N         141.8713  138.0507  158.9979 N.3     1  UNL1       -0.2668
      4 C         140.4480  138.5049  158.8640 C.3     1  UNL1        0.0742
      5 C         139.6181  138.7425  160.0907 C.3     1  UNL1        0.0397
      6 C         140.2113  138.5258  161.4512 C.3     1  UNL1        0.1052
      7 N         139.3813  138.7634  162.6779 N.am    1  UNL1       -0.2767
      8 C         138.7690  137.6033  163.4054 C.3     1  UNL1        0.1149
      9 C         139.1635  140.1610  163.1770 C.2     1  UNL1        0.2301
     10 O         139.7758  141.3212  162.4494 O.2     1  UNL1       -0.2745
     11 C         138.3335  140.3986  164.4036 C.3     1  UNL1        0.1116
     12 C         138.9941  140.7914  165.6917 C.ar    1  UNL1       -0.0130
     13 C         139.6642  142.1278  165.8139 C.ar    1  UNL1       -0.0022
     14 C         140.3249  142.5206  167.1021 C.ar    1  UNL1        0.0190
     15 C         140.3155  141.5769  168.2680 C.ar    1  UNL1        0.0862
     16 C         139.6454  140.2405  168.1458 C.ar    1  UNL1        0.0190
     17 C         138.9847  139.8477  166.8577 C.ar    1  UNL1       -0.0022
     18 N         140.9761  141.9697  169.5561 N.ar    1  UNL1       -0.1886
     19 C         142.2150  142.8043  169.6930 C.ar    1  UNL1        0.2258
     20 N         142.5185  142.9472  171.1550 N.ar    1  UNL1       -0.1045
     21 N         141.4671  142.2009  171.9217 N.ar    1  UNL1       -0.0222
     22 N         140.5139  141.5968  170.9335 N.ar    1  UNL1       -0.0385
     23 C         142.8470  139.0035  163.6855 C.3     1  UNL1        0.1741
     24 O         142.2279  137.8549  162.9456 O.3     1  UNL1       -0.3505
     25 C         142.7013  137.8131  157.7712 C.3     1  UNL1        0.0992
     26 C         142.4137  136.6356  156.8876 C.ar    1  UNL1       -0.0062
     27 C         141.3084  136.7093  155.8761 C.ar    1  UNL1       -0.0030
     28 C         141.0208  135.5318  154.9924 C.ar    1  UNL1        0.0036
     29 C         141.8385  134.2807  155.1202 C.ar    1  UNL1        0.0714
     30 C         142.9437  134.2071  156.1317 C.ar    1  UNL1        0.0036
     31 C         143.2313  135.3846  157.0153 C.ar    1  UNL1       -0.0030
     32 C         141.5509  133.1033  154.2366 C.3     1  UNL1        0.4186
     33 F         141.2633  131.9258  153.3529 F       1  UNL1       -0.1659
     34 F         140.7322  132.4829  155.3297 F       1  UNL1       -0.1659
     35 F         142.3696  133.7236  153.1435 F       1  UNL1       -0.1659
@<TRIPOS>BOND
     1    23    24    1
     2     1    24    1
     3     1     2    1
     4     2     3    1
     5     3    25    1
     6    25    26    1
     7    26    27   ar
     8    27    28   ar
     9    28    29   ar
    10    29    32    1
    11    32    33    1
    12    32    34    1
    13    32    35    1
    14    29    30   ar
    15    30    31   ar
    16     3     4    1
    17     4     5    1
    18     5     6    1
    19     6     7    1
    20     7     8    1
    21     7     9   am
    22     9    10    2
    23     9    11    1
    24    11    12    1
    25    12    13   ar
    26    13    14   ar
    27    14    15   ar
    28    15    18    1
    29    18    19   ar
    30    19    20   ar
    31    20    21   ar
    32    21    22   ar
    33    15    16   ar
    34    16    17   ar
    35     6     1    1
    36    17    12   ar
    37    31    26   ar
    38    22    18   ar
@<TRIPOS>MOLECULE
*****
 35 38 0 0 0
SMALL
GASTEIGER

@<TRIPOS>ATOM
      1 C         141.8771  138.8186  160.0829 C.3     1  UNL1        0.1493
      2 C         142.7085  138.0758  159.0795 C.3     1  UNL1        0.1040
      3 N         142.1233  137.7024  157.7498 N.3     1  UNL1       -0.2668
      4 C         140.7066  138.0718  157.4235 C.3     1  UNL1        0.0742
      5 C         139.8752  138.8147  158.4269 C.3     1  UNL1        0.0397
      6 C         140.4604  139.1881  159.7566 C.3     1  UNL1        0.1052
      7 N         139.6289  139.9310  160.7600 N.am    1  UNL1       -0.2767
      8 C         139.4713  141.4186  160.6492 C.3     1  UNL1        0.1149
      9 C         138.9550  139.1863  161.8741 C.2     1  UNL1        0.2301
     10 O         139.1127  137.6988  161.9849 O.2     1  UNL1       -0.2745
     11 C         138.1235  139.9292  162.8775 C.3     1  UNL1        0.1116
     12 C         138.5258  139.9422  164.3225 C.ar    1  UNL1       -0.0130
     13 C         138.1057  138.8227  165.2280 C.ar    1  UNL1       -0.0022
     14 C         138.5079  138.8357  166.6731 C.ar    1  UNL1        0.0190
     15 C         139.3304  139.9682  167.2125 C.ar    1  UNL1        0.0862
     16 C         139.7505  141.0878  166.3068 C.ar    1  UNL1        0.0190
     17 C         139.3482  141.0748  164.8619 C.ar    1  UNL1       -0.0022
     18 N         139.7327  139.9813  168.6574 N.ar    1  UNL1       -0.1886
     19 C         141.1307  140.1235  169.1822 C.ar    1  UNL1        0.2258
     20 N         141.0696  140.0845  170.6805 N.ar    1  UNL1       -0.1045
     21 N         139.6338  139.9181  171.0816 N.ar    1  UNL1       -0.0222
     22 N         138.8076  139.8543  169.8314 N.ar    1  UNL1       -0.0385
     23 C         143.5091  138.3217  162.0423 C.3     1  UNL1        0.1741
     24 O         142.4623  139.1920  161.4126 O.3     1  UNL1       -0.3505
     25 C         142.9548  136.9595  156.7464 C.3     1  UNL1        0.0992
     26 C         142.7130  135.4987  156.5064 C.ar    1  UNL1       -0.0062
     27 C         143.4539  134.4734  157.3125 C.ar    1  UNL1       -0.0030
     28 C         143.2121  133.0126  157.0725 C.ar    1  UNL1        0.0036
     29 C         142.2293  132.5771  156.0262 C.ar    1  UNL1        0.0714
     30 C         141.4884  133.6024  155.2201 C.ar    1  UNL1        0.0036
     31 C         141.7302  135.0632  155.4602 C.ar    1  UNL1       -0.0030
     32 C         141.9874  131.1163  155.7862 C.3     1  UNL1        0.4186
     33 F         141.7455  129.6556  155.5461 F       1  UNL1       -0.1659
     34 F         141.2282  131.4476  154.5356 F       1  UNL1       -0.1659
     35 F         142.7465  130.7851  157.0367 F       1  UNL1       -0.1659
@<TRIPOS>BOND
     1    23    24    1
     2     1    24    1
     3     1     2    1
     4     2     3    1
     5     3    25    1
     6    25    26    1
     7    26    27   ar
     8    27    28   ar
     9    28    29   ar
    10    29    32    1
    11    32    33    1
    12    32    34    1
    13    32    35    1
    14    29    30   ar
    15    30    31   ar
    16     3     4    1
    17     4     5    1
    18     5     6    1
    19     6     7    1
    20     7     8    1
    21     7     9   am
    22     9    10    2
    23     9    11    1
    24    11    12    1
    25    12    13   ar
    26    13    14   ar
    27    14    15   ar
    28    15    18    1
    29    18    19   ar
    30    19    20   ar
    31    20    21   ar
    32    21    22   ar
    33    15    16   ar
    34    16    17   ar
    35     6     1    1
    36    17    12   ar
    37    31    26   ar
    38    22    18   ar
@<TRIPOS>MOLECULE
*****
 35 38 0 0 0
SMALL
GASTEIGER

@<TRIPOS>ATOM
      1 C         139.9679  139.0480  158.5706 C.3     1  UNL1        0.1493
      2 C         140.7773  138.3233  157.5363 C.3     1  UNL1        0.1040
      3 N         142.1660  137.8584  157.8609 N.3     1  UNL1       -0.2668
      4 C         142.7453  138.1182  159.2199 C.3     1  UNL1        0.0742
      5 C         141.9360  138.8428  160.2542 C.3     1  UNL1        0.0397
      6 C         140.5473  139.3077  159.9295 C.3     1  UNL1        0.1052
      7 N         139.7379  140.0324  160.9639 N.am    1  UNL1       -0.2767
      8 C         139.8663  141.5197  161.1099 C.3     1  UNL1        0.1149
      9 C         138.8003  139.2697  161.8522 C.2     1  UNL1        0.2301
     10 O         138.6720  137.7823  161.7062 O.2     1  UNL1       -0.2745
     11 C         137.9910  139.9943  162.8866 C.3     1  UNL1        0.1116
     12 C         138.4302  139.9901  164.3209 C.ar    1  UNL1       -0.0130
     13 C         139.1755  141.1653  164.8804 C.ar    1  UNL1       -0.0022
     14 C         139.6147  141.1611  166.3147 C.ar    1  UNL1        0.0190
     15 C         139.3086  139.9816  167.1894 C.ar    1  UNL1        0.0862
     16 C         138.5632  138.8063  166.6298 C.ar    1  UNL1        0.0190
     17 C         138.1240  138.8106  165.1955 C.ar    1  UNL1       -0.0022
     18 N         139.7477  139.9774  168.6236 N.ar    1  UNL1       -0.1886
     19 C         141.1658  140.0107  169.1116 C.ar    1  UNL1        0.2258
     20 N         141.1404  139.9930  170.6113 N.ar    1  UNL1       -0.1045
     21 N         139.7067  139.9487  171.0501 N.ar    1  UNL1       -0.0222
     22 N         138.8460  139.9391  169.8217 N.ar    1  UNL1       -0.0385
     23 C         138.3635  140.8728  157.6509 C.3     1  UNL1        0.1741
     24 O         138.5792  139.5129  158.2459 O.3     1  UNL1       -0.3505
     25 C         142.9753  137.1338  156.8265 C.3     1  UNL1        0.0992
     26 C         142.7122  135.6833  156.5492 C.ar    1  UNL1       -0.0062
     27 C         141.7145  135.2892  155.5006 C.ar    1  UNL1       -0.0030
     28 C         141.4514  133.8387  155.2233 C.ar    1  UNL1        0.0036
     29 C         142.1859  132.7824  155.9945 C.ar    1  UNL1        0.0714
     30 C         143.1835  133.1765  157.0430 C.ar    1  UNL1        0.0036
     31 C         143.4466  134.6270  157.3204 C.ar    1  UNL1       -0.0030
     32 C         141.9227  131.3319  155.7172 C.3     1  UNL1        0.4186
     33 F         141.6596  129.8814  155.4399 F       1  UNL1       -0.1659
     34 F         143.1027  130.9560  156.5636 F       1  UNL1       -0.1659
     35 F         140.7428  131.7078  154.8708 F       1  UNL1       -0.1659
@<TRIPOS>BOND
     1    23    24    1
     2     1    24    1
     3     1     2    1
     4     2     3    1
     5     3    25    1
     6    25    26    1
     7    26    27   ar
     8    27    28   ar
     9    28    29   ar
    10    29    32    1
    11    32    33    1
    12    32    34    1
    13    32    35    1
    14    29    30   ar
    15    30    31   ar
    16     3     4    1
    17     4     5    1
    18     5     6    1
    19     6     7    1
    20     7     8    1
    21     7     9   am
    22     9    10    2
    23     9    11    1
    24    11    12    1
    25    12    13   ar
    26    13    14   ar
    27    14    15   ar
    28    15    18    1
    29    18    19   ar
    30    19    20   ar
    31    20    21   ar
    32    21    22   ar
    33    15    16   ar
    34    16    17   ar
    35     6     1    1
    36    17    12   ar
    37    31    26   ar
    38    22    18   ar
@<TRIPOS>MOLECULE
*****
 35 38 0 0 0
SMALL
GASTEIGER

@<TRIPOS>ATOM
      1 C         139.7280  138.7497  159.9688 C.3     1  UNL1        0.1493
      2 C         140.5516  138.4730  158.7460 C.3     1  UNL1        0.1040
      3 N         141.9589  137.9733  158.8869 N.3     1  UNL1       -0.2668
      4 C         142.5426  137.7504  160.2506 C.3     1  UNL1        0.0742
      5 C         141.7190  138.0271  161.4733 C.3     1  UNL1        0.0397
      6 C         140.3117  138.5267  161.3324 C.3     1  UNL1        0.1052
      7 N         139.4881  138.8034  162.5552 N.am    1  UNL1       -0.2767
      8 C         138.8150  137.6741  163.2774 C.3     1  UNL1        0.1149
      9 C         139.3377  140.2094  163.0558 C.2     1  UNL1        0.2301
     10 O         140.0107  141.3387  162.3335 O.2     1  UNL1       -0.2745
     11 C         138.5141  140.4861  164.2786 C.3     1  UNL1        0.1116
     12 C         139.1833  140.8983  165.5561 C.ar    1  UNL1       -0.0130
     13 C         139.7502  142.2802  165.6937 C.ar    1  UNL1       -0.0022
     14 C         140.4195  142.6924  166.9713 C.ar    1  UNL1        0.0190
     15 C         140.5219  141.7228  168.1112 C.ar    1  UNL1        0.0862
     16 C         139.9550  140.3408  167.9735 C.ar    1  UNL1        0.0190
     17 C         139.2857  139.9286  166.6960 C.ar    1  UNL1       -0.0022
     18 N         141.1912  142.1350  169.3887 N.ar    1  UNL1       -0.1886
     19 C         140.8049  141.6928  170.7690 C.ar    1  UNL1        0.2258
     20 N         141.7392  142.3463  171.7436 N.ar    1  UNL1       -0.1045
     21 N         142.7030  143.1924  170.9656 N.ar    1  UNL1       -0.0222
     22 N         142.3643  143.0618  169.5102 N.ar    1  UNL1       -0.0385
     23 C         138.0666  140.6701  159.4197 C.3     1  UNL1        0.1741
     24 O         138.3207  139.2493  159.8279 O.3     1  UNL1       -0.3505
     25 C         142.7825  137.6966  157.6641 C.3     1  UNL1        0.0992
     26 C         142.4852  136.4960  156.8155 C.ar    1  UNL1       -0.0062
     27 C         143.2714  135.2322  157.0023 C.ar    1  UNL1       -0.0030
     28 C         142.9741  134.0316  156.1537 C.ar    1  UNL1        0.0036
     29 C         141.8905  134.0947  155.1184 C.ar    1  UNL1        0.0714
     30 C         141.1043  135.3584  154.9316 C.ar    1  UNL1        0.0036
     31 C         141.4016  136.5591  155.7802 C.ar    1  UNL1       -0.0030
     32 C         141.5932  132.8941  154.2698 C.3     1  UNL1        0.4186
     33 F         141.2958  131.6935  153.4212 F       1  UNL1       -0.1659
     34 F         142.3982  133.4856  153.1508 F       1  UNL1       -0.1659
     35 F         140.7881  132.3026  155.3887 F       1  UNL1       -0.1659
@<TRIPOS>BOND
     1    23    24    1
     2     1    24    1
     3     1     2    1
     4     2     3    1
     5     3    25    1
     6    25    26    1
     7    26    27   ar
     8    27    28   ar
     9    28    29   ar
    10    29    32    1
    11    32    33    1
    12    32    34    1
    13    32    35    1
    14    29    30   ar
    15    30    31   ar
    16     3     4    1
    17     4     5    1
    18     5     6    1
    19     6     7    1
    20     7     8    1
    21     7     9   am
    22     9    10    2
    23     9    11    1
    24    11    12    1
    25    12    13   ar
    26    13    14   ar
    27    14    15   ar
    28    15    18    1
    29    18    19   ar
    30    19    20   ar
    31    20    21   ar
    32    21    22   ar
    33    15    16   ar
    34    16    17   ar
    35     6     1    1
    36    17    12   ar
    37    31    26   ar
    38    22    18   ar
@<TRIPOS>MOLECULE
*****
 35 38 0 0 0
SMALL
GASTEIGER

@<TRIPOS>ATOM
      1 C         141.6149  139.1612  160.7998 C.3     1  UNL1        0.1493
      2 C         141.0386  138.4863  159.5906 C.3     1  UNL1        0.1040
      3 N         141.6205  138.7531  158.2340 N.3     1  UNL1       -0.2668
      4 C         142.7787  139.6948  158.0868 C.3     1  UNL1        0.0742
      5 C         143.3550  140.3696  159.2960 C.3     1  UNL1        0.0397
      6 C         142.7731  140.1028  160.6526 C.3     1  UNL1        0.1052
      7 N         143.3495  140.7777  161.8619 N.am    1  UNL1       -0.2767
      8 C         144.4788  140.1359  162.6121 C.3     1  UNL1        0.1149
      9 C         142.7967  142.0944  162.3209 C.2     1  UNL1        0.2301
     10 O         141.6674  142.7362  161.5706 O.2     1  UNL1       -0.2745
     11 C         143.3731  142.7693  163.5302 C.3     1  UNL1        0.1116
     12 C         142.6448  142.7109  164.8402 C.ar    1  UNL1       -0.0130
     13 C         143.3654  142.2708  166.0799 C.ar    1  UNL1       -0.0022
     14 C         142.6372  142.2124  167.3900 C.ar    1  UNL1        0.0190
     15 C         141.1883  142.5941  167.4603 C.ar    1  UNL1        0.0862
     16 C         140.4676  143.0343  166.2205 C.ar    1  UNL1        0.0190
     17 C         141.1959  143.0926  164.9105 C.ar    1  UNL1       -0.0022
     18 N         140.4600  142.5357  168.7703 N.ar    1  UNL1       -0.1886
     19 C         139.8479  141.3120  169.3850 C.ar    1  UNL1        0.2258
     20 N         139.2255  141.7108  170.6903 N.ar    1  UNL1       -0.1045
     21 N         139.4531  143.1810  170.8822 N.ar    1  UNL1       -0.0222
     22 N         140.2160  143.6908  169.6956 N.ar    1  UNL1       -0.0385
     23 C         141.4734  137.6924  162.9382 C.3     1  UNL1        0.1741
     24 O         141.0330  138.8943  162.1564 O.3     1  UNL1       -0.3505
     25 C         141.0441  138.0782  157.0247 C.3     1  UNL1        0.0992
     26 C         141.6239  136.7819  156.5416 C.ar    1  UNL1       -0.0062
     27 C         142.8967  136.2603  157.1399 C.ar    1  UNL1       -0.0030
     28 C         143.4765  134.9640  156.6567 C.ar    1  UNL1        0.0036
     29 C         142.7834  134.1893  155.5752 C.ar    1  UNL1        0.0714
     30 C         141.5107  134.7109  154.9769 C.ar    1  UNL1        0.0036
     31 C         140.9309  136.0072  155.4601 C.ar    1  UNL1       -0.0030
     32 C         143.3632  132.8930  155.0920 C.3     1  UNL1        0.4186
     33 F         143.9430  131.5967  154.6089 F       1  UNL1       -0.1659
     34 F         144.4833  133.0254  156.0810 F       1  UNL1       -0.1659
     35 F         142.2432  132.7607  154.1031 F       1  UNL1       -0.1659
@<TRIPOS>BOND
     1    23    24    1
     2     1    24    1
     3     1     2    1
     4     2     3    1
     5     3    25    1
     6    25    26    1
     7    26    27   ar
     8    27    28   ar
     9    28    29   ar
    10    29    32    1
    11    32    33    1
    12    32    34    1
    13    32    35    1
    14    29    30   ar
    15    30    31   ar
    16     3     4    1
    17     4     5    1
    18     5     6    1
    19     6     7    1
    20     7     8    1
    21     7     9   am
    22     9    10    2
    23     9    11    1
    24    11    12    1
    25    12    13   ar
    26    13    14   ar
    27    14    15   ar
    28    15    18    1
    29    18    19   ar
    30    19    20   ar
    31    20    21   ar
    32    21    22   ar
    33    15    16   ar
    34    16    17   ar
    35     6     1    1
    36    17    12   ar
    37    31    26   ar
    38    22    18   ar
@<TRIPOS>MOLECULE
*****
 35 38 0 0 0
SMALL
GASTEIGER

@<TRIPOS>ATOM
      1 C         138.2735  140.0497  160.7193 C.3     1  UNL1        0.1493
      2 C         137.8948  140.4971  159.3385 C.3     1  UNL1        0.1040
      3 N         138.5566  139.8798  158.1423 N.3     1  UNL1       -0.2668
      4 C         139.5970  138.8152  158.3267 C.3     1  UNL1        0.0742
      5 C         139.9757  138.3679  159.7075 C.3     1  UNL1        0.0397
      6 C         139.3139  138.9851  160.9037 C.3     1  UNL1        0.1052
      7 N         139.6927  138.5378  162.2845 N.am    1  UNL1       -0.2767
      8 C         138.8103  137.5823  163.0317 C.3     1  UNL1        0.1149
      9 C         140.9538  139.0459  162.9180 C.2     1  UNL1        0.2301
     10 O         141.8362  140.0014  162.1708 O.2     1  UNL1       -0.2745
     11 C         141.3326  138.5985  164.2988 C.3     1  UNL1        0.1116
     12 C         141.0401  139.4774  165.4785 C.ar    1  UNL1       -0.0130
     13 C         139.7265  139.3609  166.1932 C.ar    1  UNL1       -0.0022
     14 C         139.4340  140.2399  167.3730 C.ar    1  UNL1        0.0190
     15 C         140.4552  141.2353  167.8382 C.ar    1  UNL1        0.0862
     16 C         141.7688  141.3518  167.1234 C.ar    1  UNL1        0.0190
     17 C         142.0613  140.4729  165.9436 C.ar    1  UNL1       -0.0022
     18 N         140.1627  142.1142  169.0179 N.ar    1  UNL1       -0.1886
     19 C         140.3905  143.5950  169.0923 C.ar    1  UNL1        0.2258
     20 N         139.9597  144.0627  170.4508 N.ar    1  UNL1       -0.1045
     21 N         139.4656  142.8709  171.2161 N.ar    1  UNL1       -0.0222
     22 N         139.5911  141.6668  170.3305 N.ar    1  UNL1       -0.0385
     23 C         137.9168  142.0865  162.2923 C.3     1  UNL1        0.1741
     24 O         137.6118  140.6670  161.9155 O.3     1  UNL1       -0.3505
     25 C         138.1778  140.3272  156.7615 C.3     1  UNL1        0.0992
     26 C         138.2489  141.7808  156.3982 C.ar    1  UNL1       -0.0062
     27 C         137.0532  142.4647  155.8042 C.ar    1  UNL1       -0.0030
     28 C         137.1243  143.9183  155.4409 C.ar    1  UNL1        0.0036
     29 C         138.3910  144.6880  155.6717 C.ar    1  UNL1        0.0714
     30 C         139.5866  144.0040  156.2656 C.ar    1  UNL1        0.0036
     31 C         139.5155  142.5504  156.6289 C.ar    1  UNL1       -0.0030
     32 C         138.4621  146.1416  155.3084 C.3     1  UNL1        0.4186
     33 F         138.5332  147.5952  154.9451 F       1  UNL1       -0.1659
     34 F         137.1722  146.0159  154.5531 F       1  UNL1       -0.1659
     35 F         139.7520  146.2673  156.0637 F       1  UNL1       -0.1659
@<TRIPOS>BOND
     1    23    24    1
     2     1    24    1
     3     1     2    1
     4     2     3    1
     5     3    25    1
     6    25    26    1
     7    26    27   ar
     8    27    28   ar
     9    28    29   ar
    10    29    32    1
    11    32    33    1
    12    32    34    1
    13    32    35    1
    14    29    30   ar
    15    30    31   ar
    16     3     4    1
    17     4     5    1
    18     5     6    1
    19     6     7    1
    20     7     8    1
    21     7     9   am
    22     9    10    2
    23     9    11    1
    24    11    12    1
    25    12    13   ar
    26    13    14   ar
    27    14    15   ar
    28    15    18    1
    29    18    19   ar
    30    19    20   ar
    31    20    21   ar
    32    21    22   ar
    33    15    16   ar
    34    16    17   ar
    35     6     1    1
    36    17    12   ar
    37    31    26   ar
    38    22    18   ar
@<TRIPOS>MOLECULE
*****
 35 38 0 0 0
SMALL
GASTEIGER

@<TRIPOS>ATOM
      1 C         141.4665  139.2367  160.3125 C.3     1  UNL1        0.1493
      2 C         141.0193  138.5429  159.0600 C.3     1  UNL1        0.1040
      3 N         141.8718  138.5976  157.8270 N.3     1  UNL1       -0.2668
      4 C         143.1715  139.3461  157.8465 C.3     1  UNL1        0.0742
      5 C         143.6187  140.0399  159.0989 C.3     1  UNL1        0.0397
      6 C         142.7662  139.9851  160.3319 C.3     1  UNL1        0.1052
      7 N         143.2135  140.6789  161.5844 N.am    1  UNL1       -0.2767
      8 C         142.9828  142.1519  161.7490 C.3     1  UNL1        0.1149
      9 C         143.8915  139.8998  162.6721 C.2     1  UNL1        0.2301
     10 O         144.1222  138.4268  162.5075 O.2     1  UNL1       -0.2745
     11 C         144.3388  140.5936  163.9246 C.3     1  UNL1        0.1116
     12 C         143.4933  140.5268  165.1618 C.ar    1  UNL1       -0.0130
     13 C         143.3902  139.2435  165.9314 C.ar    1  UNL1       -0.0022
     14 C         142.5447  139.1767  167.1686 C.ar    1  UNL1        0.0190
     15 C         141.8022  140.3933  167.6362 C.ar    1  UNL1        0.0862
     16 C         141.9053  141.6767  166.8665 C.ar    1  UNL1        0.0190
     17 C         142.7508  141.7435  165.6293 C.ar    1  UNL1       -0.0022
     18 N         140.9567  140.3266  168.8733 N.ar    1  UNL1       -0.1886
     19 C         141.3880  140.7105  170.2578 C.ar    1  UNL1        0.2258
     20 N         140.2293  140.4854  171.1834 N.ar    1  UNL1       -0.1045
     21 N         139.0819  139.9624  170.3709 N.ar    1  UNL1       -0.0222
     22 N         139.5315  139.8643  168.9433 N.ar    1  UNL1       -0.0385
     23 C         139.7767  137.9692  161.8251 C.3     1  UNL1        0.1741
     24 O         140.6140  139.1819  161.5454 O.3     1  UNL1       -0.3505
     25 C         141.4245  137.9038  156.5746 C.3     1  UNL1        0.0992
     26 C         141.8024  136.4722  156.3344 C.ar    1  UNL1       -0.0062
     27 C         141.0458  135.6553  155.3292 C.ar    1  UNL1       -0.0030
     28 C         141.4237  134.2237  155.0891 C.ar    1  UNL1        0.0036
     29 C         142.5581  133.6090  155.8542 C.ar    1  UNL1        0.0714
     30 C         143.3146  134.4259  156.8593 C.ar    1  UNL1        0.0036
     31 C         142.9367  135.8575  157.0995 C.ar    1  UNL1       -0.0030
     32 C         142.9360  132.1774  155.6140 C.3     1  UNL1        0.4186
     33 F         143.3139  130.7457  155.3739 F       1  UNL1       -0.1659
     34 F         142.6225  131.8546  157.0449 F       1  UNL1       -0.1659
     35 F         143.2496  132.5001  154.1831 F       1  UNL1       -0.1659
@<TRIPOS>BOND
     1    23    24    1
     2     1    24    1
     3     1     2    1
     4     2     3    1
     5     3    25    1
     6    25    26    1
     7    26    27   ar
     8    27    28   ar
     9    28    29   ar
    10    29    32    1
    11    32    33    1
    12    32    34    1
    13    32    35    1
    14    29    30   ar
    15    30    31   ar
    16     3     4    1
    17     4     5    1
    18     5     6    1
    19     6     7    1
    20     7     8    1
    21     7     9   am
    22     9    10    2
    23     9    11    1
    24    11    12    1
    25    12    13   ar
    26    13    14   ar
    27    14    15   ar
    28    15    18    1
    29    18    19   ar
    30    19    20   ar
    31    20    21   ar
    32    21    22   ar
    33    15    16   ar
    34    16    17   ar
    35     6     1    1
    36    17    12   ar
    37    31    26   ar
    38    22    18   ar
@<TRIPOS>MOLECULE
*****
 35 38 0 0 0
SMALL
GASTEIGER

@<TRIPOS>ATOM
      1 C         140.4149  142.8508  159.7429 C.3     1  UNL1        0.1493
      2 C         140.9641  143.6160  158.5756 C.3     1  UNL1        0.1040
      3 N         140.1392  143.7844  157.3341 N.3     1  UNL1       -0.2668
      4 C         138.7651  143.1875  157.2600 C.3     1  UNL1        0.0742
      5 C         138.2159  142.4222  158.4273 C.3     1  UNL1        0.0397
      6 C         139.0408  142.2539  159.6688 C.3     1  UNL1        0.1052
      7 N         138.4915  141.4885  160.8361 N.am    1  UNL1       -0.2767
      8 C         138.5319  139.9891  160.8358 C.3     1  UNL1        0.1149
      9 C         137.9019  142.2227  162.0038 C.2     1  UNL1        0.2301
     10 O         137.8615  143.7221  162.0041 O.2     1  UNL1       -0.2745
     11 C         137.3526  141.4573  163.1711 C.3     1  UNL1        0.1116
     12 C         138.2487  141.0928  164.3175 C.ar    1  UNL1       -0.0130
     13 C         139.2438  142.0875  164.8372 C.ar    1  UNL1       -0.0022
     14 C         140.1399  141.7230  165.9837 C.ar    1  UNL1        0.0190
     15 C         140.0408  140.3638  166.6103 C.ar    1  UNL1        0.0862
     16 C         139.0456  139.3691  166.0905 C.ar    1  UNL1        0.0190
     17 C         138.1496  139.7336  164.9441 C.ar    1  UNL1       -0.0022
     18 N         140.9368  139.9993  167.7567 N.ar    1  UNL1       -0.1886
     19 C         142.3904  139.6416  167.6604 C.ar    1  UNL1        0.2258
     20 N         142.8886  139.3497  169.0449 N.ar    1  UNL1       -0.1045
     21 N         141.7428  139.5270  169.9967 N.ar    1  UNL1       -0.0222
     22 N         140.5366  139.9284  169.2005 N.ar    1  UNL1       -0.0385
     23 C         142.1309  141.4854  161.1361 C.3     1  UNL1        0.1741
     24 O         141.2397  142.6824  160.9844 O.3     1  UNL1       -0.3505
     25 C         140.6885  144.5497  156.1668 C.3     1  UNL1        0.0992
     26 C         140.2059  145.9426  155.8892 C.ar    1  UNL1       -0.0062
     27 C         140.4759  146.5785  154.5577 C.ar    1  UNL1       -0.0030
     28 C         139.9934  147.9714  154.2801 C.ar    1  UNL1        0.0036
     29 C         139.2409  148.7284  155.3341 C.ar    1  UNL1        0.0714
     30 C         138.9709  148.0925  156.6655 C.ar    1  UNL1        0.0036
     31 C         139.4534  146.6996  156.9431 C.ar    1  UNL1       -0.0030
     32 C         138.7584  150.1213  155.0565 C.3     1  UNL1        0.4186
     33 F         138.2758  151.5142  154.7789 F       1  UNL1       -0.1659
     34 F         138.1683  150.1913  156.4338 F       1  UNL1       -0.1659
     35 F         139.3484  150.0512  153.6792 F       1  UNL1       -0.1659
@<TRIPOS>BOND
     1    23    24    1
     2     1    24    1
     3     1     2    1
     4     2     3    1
     5     3    25    1
     6    25    26    1
     7    26    27   ar
     8    27    28   ar
     9    28    29   ar
    10    29    32    1
    11    32    33    1
    12    32    34    1
    13    32    35    1
    14    29    30   ar
    15    30    31   ar
    16     3     4    1
    17     4     5    1
    18     5     6    1
    19     6     7    1
    20     7     8    1
    21     7     9   am
    22     9    10    2
    23     9    11    1
    24    11    12    1
    25    12    13   ar
    26    13    14   ar
    27    14    15   ar
    28    15    18    1
    29    18    19   ar
    30    19    20   ar
    31    20    21   ar
    32    21    22   ar
    33    15    16   ar
    34    16    17   ar
    35     6     1    1
    36    17    12   ar
    37    31    26   ar
    38    22    18   ar
