@<TRIPOS>MOLECULE
*****
 33 37 0 0 0
SMALL
GASTEIGER

@<TRIPOS>ATOM
      1 C         138.0935  140.5678  161.7823 C.3     1  UNL1        0.0466
      2 C         137.4010  141.4480  162.7801 C.3     1  UNL1        0.0211
      3 C         137.8313  142.8753  162.9471 C.3     1  UNL1        0.0722
      4 N         138.9540  143.4223  162.1162 N.3     1  UNL1       -0.2724
      5 C         139.6465  142.5419  161.1184 C.3     1  UNL1        0.0722
      6 C         139.2162  141.1147  160.9515 C.3     1  UNL1        0.0211
      7 C         137.6632  139.1406  161.6154 C.3     1  UNL1        0.2071
      8 O         138.1816  138.0869  162.5487 O.3     1  UNL1       -0.4602
      9 C         143.9962  137.8499  161.4445 C.3     1  UNL1        0.1305
     10 N         142.8706  138.1332  162.3947 N.ar    1  UNL1       -0.3228
     11 C         141.4073  138.0054  162.0912 C.ar    1  UNL1        0.0806
     12 C         140.6431  138.3872  163.3242 C.ar    1  UNL1        0.0718
     13 C         139.1727  138.4506  163.6143 C.ar    1  UNL1        0.2262
     14 N         138.6935  138.8778  164.9699 N.ar    1  UNL1       -0.2116
     15 C         139.6847  139.2416  166.0356 C.ar    1  UNL1        0.0844
     16 C         139.2054  139.6687  167.3912 C.ar    1  UNL1        0.0192
     17 C         140.1965  140.0325  168.4567 C.ar    1  UNL1        0.0015
     18 C         141.6668  139.9691  168.1666 C.ar    1  UNL1        0.0001
     19 C         142.1461  139.5419  166.8109 C.ar    1  UNL1        0.0015
     20 C         141.1550  139.1781  165.7454 C.ar    1  UNL1        0.0194
     21 C         141.6342  138.7509  164.3897 C.ar    1  UNL1        0.0246
     22 C         143.0109  138.5940  163.8153 C.ar    1  UNL1        0.0762
     23 C         139.3843  144.8495  162.2832 C.3     1  UNL1        0.0768
     24 C         140.3600  145.2174  163.3613 C.3     1  UNL1        0.0437
     25 C         141.6017  144.3995  163.5601 C.ar    1  UNL1       -0.0208
     26 C         142.8405  144.7139  162.7750 C.ar    1  UNL1       -0.0045
     27 C         144.0822  143.8960  162.9738 C.ar    1  UNL1       -0.0022
     28 C         144.0850  142.7639  163.9578 C.ar    1  UNL1        0.0069
     29 C         142.8461  142.4496  164.7429 C.ar    1  UNL1       -0.0022
     30 C         141.6045  143.2674  164.5441 C.ar    1  UNL1       -0.0045
     31 C         145.3266  141.9461  164.1566 C.3     1  UNL1        0.1636
     32 O         146.3521  141.8622  163.0652 O.3     1  UNL1       -0.3772
     33 H         145.9739  141.3999  162.3009 H       1  UNL1        0.2109
@<TRIPOS>BOND
     1     9    10    1
     2    10    11   ar
     3    11    12   ar
     4    12    13   ar
     5    13     8    1
     6     8     7    1
     7     7     1    1
     8     1     2    1
     9     2     3    1
    10     3     4    1
    11     4    23    1
    12    23    24    1
    13    24    25    1
    14    25    26   ar
    15    26    27   ar
    16    27    28   ar
    17    28    31    1
    18    31    32    1
    19    28    29   ar
    20    29    30   ar
    21     4     5    1
    22     5     6    1
    23    13    14   ar
    24    14    15   ar
    25    15    16   ar
    26    16    17   ar
    27    17    18   ar
    28    18    19   ar
    29    19    20   ar
    30    20    21   ar
    31    21    22   ar
    32    22    10   ar
    33    21    12   ar
    34     6     1    1
    35    20    15   ar
    36    30    25   ar
    37    32    33    1
@<TRIPOS>MOLECULE
*****
 33 37 0 0 0
SMALL
GASTEIGER

@<TRIPOS>ATOM
      1 C         141.9926  144.5731  162.7355 C.3     1  UNL1        0.0466
      2 C         142.9152  144.7720  163.9014 C.3     1  UNL1        0.0211
      3 C         144.1361  143.9127  164.0468 C.3     1  UNL1        0.0722
      4 N         144.4343  142.8545  163.0263 N.3     1  UNL1       -0.2724
      5 C         143.5117  142.6556  161.8604 C.3     1  UNL1        0.0722
      6 C         142.2908  143.5149  161.7151 C.3     1  UNL1        0.0211
      7 C         140.7718  145.4324  162.5902 C.3     1  UNL1        0.2071
      8 O         139.4853  145.0247  163.2450 O.3     1  UNL1       -0.4602
      9 C         137.4126  139.9902  160.9119 C.3     1  UNL1        0.1305
     10 N         137.9872  140.7335  162.0813 N.ar    1  UNL1       -0.3228
     11 C         138.3720  142.1831  162.1018 C.ar    1  UNL1        0.0806
     12 C         138.9005  142.5031  163.4687 C.ar    1  UNL1        0.0718
     13 C         139.4272  143.7727  164.0693 C.ar    1  UNL1        0.2262
     14 N         139.8957  143.7905  165.4941 N.ar    1  UNL1       -0.2116
     15 C         139.8376  142.5385  166.3184 C.ar    1  UNL1        0.0844
     16 C         140.3061  142.5563  167.7432 C.ar    1  UNL1        0.0192
     17 C         140.2479  141.3044  168.5674 C.ar    1  UNL1        0.0015
     18 C         139.7213  140.0348  167.9668 C.ar    1  UNL1        0.0001
     19 C         139.2527  140.0171  166.5420 C.ar    1  UNL1        0.0015
     20 C         139.3109  141.2689  165.7178 C.ar    1  UNL1        0.0194
     21 C         138.8423  141.2513  164.2929 C.ar    1  UNL1        0.0246
     22 C         138.2779  140.1575  163.4355 C.ar    1  UNL1        0.0762
     23 C         145.6552  141.9952  163.1717 C.3     1  UNL1        0.0768
     24 C         145.5920  140.7332  163.9798 C.3     1  UNL1        0.0437
     25 C         144.3794  139.8535  163.9035 C.ar    1  UNL1       -0.0208
     26 C         144.1120  139.0506  162.6651 C.ar    1  UNL1       -0.0045
     27 C         142.8993  138.1710  162.5888 C.ar    1  UNL1       -0.0022
     28 C         141.9541  138.0943  163.7510 C.ar    1  UNL1        0.0069
     29 C         142.2215  138.8973  164.9895 C.ar    1  UNL1       -0.0022
     30 C         143.4341  139.7769  165.0657 C.ar    1  UNL1       -0.0045
     31 C         140.7414  137.2148  163.6748 C.3     1  UNL1        0.1636
     32 O         139.9011  137.2020  162.4323 O.3     1  UNL1       -0.3772
     33 H         139.4806  138.0686  162.3175 H       1  UNL1        0.2109
@<TRIPOS>BOND
     1     9    10    1
     2    10    11   ar
     3    11    12   ar
     4    12    13   ar
     5    13     8    1
     6     8     7    1
     7     7     1    1
     8     1     2    1
     9     2     3    1
    10     3     4    1
    11     4    23    1
    12    23    24    1
    13    24    25    1
    14    25    26   ar
    15    26    27   ar
    16    27    28   ar
    17    28    31    1
    18    31    32    1
    19    28    29   ar
    20    29    30   ar
    21     4     5    1
    22     5     6    1
    23    13    14   ar
    24    14    15   ar
    25    15    16   ar
    26    16    17   ar
    27    17    18   ar
    28    18    19   ar
    29    19    20   ar
    30    20    21   ar
    31    21    22   ar
    32    22    10   ar
    33    21    12   ar
    34     6     1    1
    35    20    15   ar
    36    30    25   ar
    37    32    33    1
@<TRIPOS>MOLECULE
*****
 33 37 0 0 0
SMALL
GASTEIGER

@<TRIPOS>ATOM
      1 C         142.3053  144.3894  162.8335 C.3     1  UNL1        0.0466
      2 C         141.7496  143.5365  161.7319 C.3     1  UNL1        0.0211
      3 C         140.2808  143.2355  161.6845 C.3     1  UNL1        0.0722
      4 N         139.3678  143.7876  162.7389 N.3     1  UNL1       -0.2724
      5 C         139.9235  144.6405  163.8406 C.3     1  UNL1        0.0722
      6 C         141.3922  144.9414  163.8879 C.3     1  UNL1        0.0211
      7 C         143.7740  144.6903  162.8808 C.3     1  UNL1        0.2071
      8 O         144.7238  143.6981  163.4837 O.3     1  UNL1       -0.4602
      9 C         144.0977  138.1508  161.5036 C.3     1  UNL1        0.1305
     10 N         143.9782  139.1475  162.6182 N.ar    1  UNL1       -0.3228
     11 C         144.3258  140.6045  162.5392 C.ar    1  UNL1        0.0806
     12 C         144.0525  141.2196  163.8797 C.ar    1  UNL1        0.0718
     13 C         144.2073  142.6212  164.3913 C.ar    1  UNL1        0.2262
     14 N         143.8456  142.9459  165.8103 N.ar    1  UNL1       -0.2116
     15 C         143.3290  141.8690  166.7178 C.ar    1  UNL1        0.0844
     16 C         142.9673  142.1937  168.1369 C.ar    1  UNL1        0.0192
     17 C         142.4508  141.1168  169.0443 C.ar    1  UNL1        0.0015
     18 C         142.2961  139.7153  168.5328 C.ar    1  UNL1        0.0001
     19 C         142.6578  139.3906  167.1138 C.ar    1  UNL1        0.0015
     20 C         143.1743  140.4674  166.2063 C.ar    1  UNL1        0.0194
     21 C         143.5360  140.1428  164.7872 C.ar    1  UNL1        0.0246
     22 C         143.4901  138.8621  164.0076 C.ar    1  UNL1        0.0762
     23 C         137.8990  143.4867  162.6916 C.3     1  UNL1        0.0768
     24 C         137.3288  142.3965  163.5496 C.3     1  UNL1        0.0437
     25 C         138.0702  141.1022  163.7089 C.ar    1  UNL1       -0.0208
     26 C         139.0115  140.9140  164.8615 C.ar    1  UNL1       -0.0045
     27 C         139.7529  139.6197  165.0208 C.ar    1  UNL1       -0.0022
     28 C         139.5529  138.5137  164.0275 C.ar    1  UNL1        0.0069
     29 C         138.6115  138.7019  162.8748 C.ar    1  UNL1       -0.0022
     30 C         137.8702  139.9961  162.7156 C.ar    1  UNL1       -0.0045
     31 C         140.2942  137.2195  164.1868 C.3     1  UNL1        0.1636
     32 O         141.1366  136.6944  163.0623 O.3     1  UNL1       -0.3772
     33 H         140.5669  136.4639  162.3118 H       1  UNL1        0.2109
@<TRIPOS>BOND
     1     9    10    1
     2    10    11   ar
     3    11    12   ar
     4    12    13   ar
     5    13     8    1
     6     8     7    1
     7     7     1    1
     8     1     2    1
     9     2     3    1
    10     3     4    1
    11     4    23    1
    12    23    24    1
    13    24    25    1
    14    25    26   ar
    15    26    27   ar
    16    27    28   ar
    17    28    31    1
    18    31    32    1
    19    28    29   ar
    20    29    30   ar
    21     4     5    1
    22     5     6    1
    23    13    14   ar
    24    14    15   ar
    25    15    16   ar
    26    16    17   ar
    27    17    18   ar
    28    18    19   ar
    29    19    20   ar
    30    20    21   ar
    31    21    22   ar
    32    22    10   ar
    33    21    12   ar
    34     6     1    1
    35    20    15   ar
    36    30    25   ar
    37    32    33    1
@<TRIPOS>MOLECULE
*****
 33 37 0 0 0
SMALL
GASTEIGER

@<TRIPOS>ATOM
      1 C         139.6259  137.6135  164.3463 C.3     1  UNL1        0.0466
      2 C         139.1837  137.8341  162.9300 C.3     1  UNL1        0.0211
      3 C         140.2038  137.9879  161.8411 C.3     1  UNL1        0.0722
      4 N         141.6661  137.9211  162.1684 N.3     1  UNL1       -0.2724
      5 C         142.1083  137.7005  163.5847 C.3     1  UNL1        0.0722
      6 C         141.0883  137.5467  164.6736 C.3     1  UNL1        0.0211
      7 C         138.6058  137.4597  165.4351 C.3     1  UNL1        0.2071
      8 O         138.0458  138.6737  166.1152 O.3     1  UNL1       -0.4602
      9 C         142.7604  140.8921  168.9323 C.3     1  UNL1        0.1305
     10 N         141.6821  141.0408  167.9002 N.ar    1  UNL1       -0.3228
     11 C         140.6263  140.0261  167.5755 C.ar    1  UNL1        0.0806
     12 C         139.7621  140.5886  166.4862 C.ar    1  UNL1        0.0718
     13 C         138.5675  140.0363  165.7666 C.ar    1  UNL1        0.2262
     14 N         137.8946  140.8463  164.6985 N.ar    1  UNL1       -0.2116
     15 C         138.4162  142.2089  164.3499 C.ar    1  UNL1        0.0844
     16 C         137.7433  143.0190  163.2818 C.ar    1  UNL1        0.0192
     17 C         138.2650  144.3814  162.9333 C.ar    1  UNL1        0.0015
     18 C         139.4596  144.9338  163.6529 C.ar    1  UNL1        0.0001
     19 C         140.1326  144.1237  164.7210 C.ar    1  UNL1        0.0015
     20 C         139.6109  142.7612  165.0695 C.ar    1  UNL1        0.0194
     21 C         140.2838  141.9511  166.1376 C.ar    1  UNL1        0.0246
     22 C         141.4704  142.2306  167.0115 C.ar    1  UNL1        0.0762
     23 C         142.6862  138.0749  161.0795 C.3     1  UNL1        0.0768
     24 C         143.9872  138.7656  161.3628 C.3     1  UNL1        0.0437
     25 C         143.9913  140.1608  161.9139 C.ar    1  UNL1       -0.0208
     26 C         144.7819  140.4771  163.1487 C.ar    1  UNL1       -0.0045
     27 C         144.7860  141.8723  163.6998 C.ar    1  UNL1       -0.0022
     28 C         143.9994  142.9510  163.0160 C.ar    1  UNL1        0.0069
     29 C         143.2086  142.6346  161.7812 C.ar    1  UNL1       -0.0022
     30 C         143.2046  141.2395  161.2302 C.ar    1  UNL1       -0.0045
     31 C         144.0034  144.3461  163.5671 C.3     1  UNL1        0.1636
     32 O         143.6035  145.4984  162.6940 O.3     1  UNL1       -0.3772
     33 H         144.2522  145.6038  161.9805 H       1  UNL1        0.2109
@<TRIPOS>BOND
     1     9    10    1
     2    10    11   ar
     3    11    12   ar
     4    12    13   ar
     5    13     8    1
     6     8     7    1
     7     7     1    1
     8     1     2    1
     9     2     3    1
    10     3     4    1
    11     4    23    1
    12    23    24    1
    13    24    25    1
    14    25    26   ar
    15    26    27   ar
    16    27    28   ar
    17    28    31    1
    18    31    32    1
    19    28    29   ar
    20    29    30   ar
    21     4     5    1
    22     5     6    1
    23    13    14   ar
    24    14    15   ar
    25    15    16   ar
    26    16    17   ar
    27    17    18   ar
    28    18    19   ar
    29    19    20   ar
    30    20    21   ar
    31    21    22   ar
    32    22    10   ar
    33    21    12   ar
    34     6     1    1
    35    20    15   ar
    36    30    25   ar
    37    32    33    1
@<TRIPOS>MOLECULE
*****
 33 37 0 0 0
SMALL
GASTEIGER

@<TRIPOS>ATOM
      1 C         137.8932  140.4970  161.7642 C.3     1  UNL1        0.0466
      2 C         137.5599  140.8594  163.1811 C.3     1  UNL1        0.0211
      3 C         137.8492  142.2405  163.6899 C.3     1  UNL1        0.0722
      4 N         138.4718  143.2592  162.7818 N.3     1  UNL1       -0.2724
      5 C         138.8051  142.8968  161.3649 C.3     1  UNL1        0.0722
      6 C         138.5158  141.5157  160.8561 C.3     1  UNL1        0.0211
      7 C         137.6039  139.1159  161.2555 C.3     1  UNL1        0.2071
      8 O         138.5066  137.9762  161.6247 O.3     1  UNL1       -0.4602
      9 C         142.7294  139.0785  157.6199 C.3     1  UNL1        0.1305
     10 N         142.3170  138.9137  159.0527 N.ar    1  UNL1       -0.3228
     11 C         140.9345  138.5979  159.5415 C.ar    1  UNL1        0.0806
     12 C         140.9777  138.5249  161.0391 C.ar    1  UNL1        0.0718
     13 C         139.9159  138.2469  162.0615 C.ar    1  UNL1        0.2262
     14 N         140.2634  138.2395  163.5206 N.ar    1  UNL1       -0.2116
     15 C         141.6727  138.5102  163.9574 C.ar    1  UNL1        0.0844
     16 C         142.0201  138.5028  165.4166 C.ar    1  UNL1        0.0192
     17 C         143.4293  138.7734  165.8533 C.ar    1  UNL1        0.0015
     18 C         144.4911  139.0514  164.8309 C.ar    1  UNL1        0.0001
     19 C         144.1437  139.0588  163.3718 C.ar    1  UNL1        0.0015
     20 C         142.7345  138.7881  162.9350 C.ar    1  UNL1        0.0194
     21 C         142.3869  138.7955  161.4758 C.ar    1  UNL1        0.0246
     22 C         143.2147  139.0358  160.2482 C.ar    1  UNL1        0.0762
     23 C         138.7611  144.6403  163.2906 C.3     1  UNL1        0.0768
     24 C         139.7404  144.8375  164.4094 C.3     1  UNL1        0.0437
     25 C         141.1221  144.2624  164.3069 C.ar    1  UNL1       -0.0208
     26 C         141.4022  142.8856  164.8322 C.ar    1  UNL1       -0.0045
     27 C         142.7839  142.3106  164.7297 C.ar    1  UNL1       -0.0022
     28 C         143.8853  143.1123  164.1019 C.ar    1  UNL1        0.0069
     29 C         143.6050  144.4892  163.5767 C.ar    1  UNL1       -0.0022
     30 C         142.2235  145.0642  163.6792 C.ar    1  UNL1       -0.0045
     31 C         145.2669  142.5373  163.9994 C.3     1  UNL1        0.1636
     32 O         145.8158  142.1384  162.6617 O.3     1  UNL1       -0.3772
     33 H         145.3033  141.3931  162.3111 H       1  UNL1        0.2109
@<TRIPOS>BOND
     1     9    10    1
     2    10    11   ar
     3    11    12   ar
     4    12    13   ar
     5    13     8    1
     6     8     7    1
     7     7     1    1
     8     1     2    1
     9     2     3    1
    10     3     4    1
    11     4    23    1
    12    23    24    1
    13    24    25    1
    14    25    26   ar
    15    26    27   ar
    16    27    28   ar
    17    28    31    1
    18    31    32    1
    19    28    29   ar
    20    29    30   ar
    21     4     5    1
    22     5     6    1
    23    13    14   ar
    24    14    15   ar
    25    15    16   ar
    26    16    17   ar
    27    17    18   ar
    28    18    19   ar
    29    19    20   ar
    30    20    21   ar
    31    21    22   ar
    32    22    10   ar
    33    21    12   ar
    34     6     1    1
    35    20    15   ar
    36    30    25   ar
    37    32    33    1
@<TRIPOS>MOLECULE
*****
 33 37 0 0 0
SMALL
GASTEIGER

@<TRIPOS>ATOM
      1 C         138.0221  142.8466  163.9625 C.3     1  UNL1        0.0466
      2 C         137.7653  142.6936  162.4926 C.3     1  UNL1        0.0211
      3 C         137.7475  141.3278  161.8725 C.3     1  UNL1        0.0722
      4 N         137.9864  140.1151  162.7224 N.3     1  UNL1       -0.2724
      5 C         138.2431  140.2682  164.1924 C.3     1  UNL1        0.0722
      6 C         138.2609  141.6339  164.8124 C.3     1  UNL1        0.0211
      7 C         138.0399  144.2123  164.5825 C.3     1  UNL1        0.2071
      8 O         139.2595  145.0766  164.4581 O.3     1  UNL1       -0.4602
      9 C         140.3332  145.5488  158.6521 C.3     1  UNL1        0.1305
     10 N         140.7583  145.0801  160.0122 N.ar    1  UNL1       -0.3228
     11 C         139.9884  145.2591  161.2870 C.ar    1  UNL1        0.0806
     12 C         140.7822  144.6398  162.3988 C.ar    1  UNL1        0.0718
     13 C         140.5201  144.5148  163.8704 C.ar    1  UNL1        0.2262
     14 N         141.5186  143.8280  164.7544 N.ar    1  UNL1       -0.2116
     15 C         142.7792  143.2662  164.1667 C.ar    1  UNL1        0.0844
     16 C         143.7776  142.5794  165.0507 C.ar    1  UNL1        0.0192
     17 C         145.0381  142.0176  164.4630 C.ar    1  UNL1        0.0015
     18 C         145.3002  142.1426  162.9914 C.ar    1  UNL1        0.0001
     19 C         144.3018  142.8294  162.1075 C.ar    1  UNL1        0.0015
     20 C         143.0413  143.3912  162.6951 C.ar    1  UNL1        0.0194
     21 C         142.0428  144.0780  161.8112 C.ar    1  UNL1        0.0246
     22 C         142.0280  144.3501  160.3361 C.ar    1  UNL1        0.0762
     23 C         137.9686  138.7494  162.1024 C.3     1  UNL1        0.0768
     24 C         139.2581  138.0378  161.8184 C.3     1  UNL1        0.0437
     25 C         140.4274  138.2069  162.7427 C.ar    1  UNL1       -0.0208
     26 C         140.5604  137.3295  163.9520 C.ar    1  UNL1       -0.0045
     27 C         141.7296  137.4985  164.8764 C.ar    1  UNL1       -0.0022
     28 C         142.7659  138.5449  164.5913 C.ar    1  UNL1        0.0069
     29 C         142.6328  139.4223  163.3819 C.ar    1  UNL1       -0.0022
     30 C         141.4636  139.2533  162.4577 C.ar    1  UNL1       -0.0045
     31 C         143.9351  138.7140  165.5156 C.3     1  UNL1        0.1636
     32 O         143.9127  138.0832  166.8763 O.3     1  UNL1       -0.3772
     33 H         143.2198  138.4980  167.4136 H       1  UNL1        0.2109
@<TRIPOS>BOND
     1     9    10    1
     2    10    11   ar
     3    11    12   ar
     4    12    13   ar
     5    13     8    1
     6     8     7    1
     7     7     1    1
     8     1     2    1
     9     2     3    1
    10     3     4    1
    11     4    23    1
    12    23    24    1
    13    24    25    1
    14    25    26   ar
    15    26    27   ar
    16    27    28   ar
    17    28    31    1
    18    31    32    1
    19    28    29   ar
    20    29    30   ar
    21     4     5    1
    22     5     6    1
    23    13    14   ar
    24    14    15   ar
    25    15    16   ar
    26    16    17   ar
    27    17    18   ar
    28    18    19   ar
    29    19    20   ar
    30    20    21   ar
    31    21    22   ar
    32    22    10   ar
    33    21    12   ar
    34     6     1    1
    35    20    15   ar
    36    30    25   ar
    37    32    33    1
@<TRIPOS>MOLECULE
*****
 33 37 0 0 0
SMALL
GASTEIGER

@<TRIPOS>ATOM
      1 C         140.9106  145.1122  162.0796 C.3     1  UNL1        0.0466
      2 C         141.8935  145.2725  163.2012 C.3     1  UNL1        0.0211
      3 C         143.2285  144.5920  163.1316 C.3     1  UNL1        0.0722
      4 N         143.5806  143.7513  161.9402 N.3     1  UNL1       -0.2724
      5 C         142.5975  143.5911  160.8185 C.3     1  UNL1        0.0722
      6 C         141.2626  144.2715  160.8883 C.3     1  UNL1        0.0211
      7 C         139.5756  145.7926  162.1493 C.3     1  UNL1        0.2071
      8 O         138.3811  145.0492  162.6694 O.3     1  UNL1       -0.4602
      9 C         140.5479  142.8301  167.7158 C.3     1  UNL1        0.1305
     10 N         139.9540  142.6103  166.3560 N.ar    1  UNL1       -0.3228
     11 C         139.5464  143.6814  165.3882 C.ar    1  UNL1        0.0806
     12 C         139.0039  143.0139  164.1594 C.ar    1  UNL1        0.0718
     13 C         138.4535  143.5654  162.8777 C.ar    1  UNL1        0.2262
     14 N         137.9753  142.6332  161.8042 N.ar    1  UNL1       -0.2116
     15 C         138.0476  141.1494  162.0124 C.ar    1  UNL1        0.0844
     16 C         137.5695  140.2173  160.9390 C.ar    1  UNL1        0.0192
     17 C         137.6418  138.7336  161.1473 C.ar    1  UNL1        0.0015
     18 C         138.1923  138.1821  162.4290 C.ar    1  UNL1        0.0001
     19 C         138.6704  139.1143  163.5024 C.ar    1  UNL1        0.0015
     20 C         138.5981  140.5979  163.2942 C.ar    1  UNL1        0.0194
     21 C         139.0763  141.5302  164.3676 C.ar    1  UNL1        0.0246
     22 C         139.6634  141.2807  165.7252 C.ar    1  UNL1        0.0762
     23 C         144.9155  143.0709  161.8705 C.3     1  UNL1        0.0768
     24 C         145.3156  142.0935  162.9356 C.3     1  UNL1        0.0437
     25 C         144.4118  140.9464  163.2787 C.ar    1  UNL1       -0.0208
     26 C         144.0440  139.9411  162.2280 C.ar    1  UNL1       -0.0045
     27 C         143.1403  138.7941  162.5711 C.ar    1  UNL1       -0.0022
     28 C         142.6044  138.6525  163.9650 C.ar    1  UNL1        0.0069
     29 C         142.9722  139.6579  165.0157 C.ar    1  UNL1       -0.0022
     30 C         143.8759  140.8048  164.6725 C.ar    1  UNL1       -0.0045
     31 C         141.7007  137.5055  164.3081 C.3     1  UNL1        0.1636
     32 O         141.2362  136.5689  163.2325 O.3     1  UNL1       -0.3772
     33 H         140.6635  137.0470  162.6126 H       1  UNL1        0.2109
@<TRIPOS>BOND
     1     9    10    1
     2    10    11   ar
     3    11    12   ar
     4    12    13   ar
     5    13     8    1
     6     8     7    1
     7     7     1    1
     8     1     2    1
     9     2     3    1
    10     3     4    1
    11     4    23    1
    12    23    24    1
    13    24    25    1
    14    25    26   ar
    15    26    27   ar
    16    27    28   ar
    17    28    31    1
    18    31    32    1
    19    28    29   ar
    20    29    30   ar
    21     4     5    1
    22     5     6    1
    23    13    14   ar
    24    14    15   ar
    25    15    16   ar
    26    16    17   ar
    27    17    18   ar
    28    18    19   ar
    29    19    20   ar
    30    20    21   ar
    31    21    22   ar
    32    22    10   ar
    33    21    12   ar
    34     6     1    1
    35    20    15   ar
    36    30    25   ar
    37    32    33    1
@<TRIPOS>MOLECULE
*****
 33 37 0 0 0
SMALL
GASTEIGER

@<TRIPOS>ATOM
      1 C         137.9266  142.9056  163.0262 C.3     1  UNL1        0.0466
      2 C         138.1392  142.6358  161.5661 C.3     1  UNL1        0.0211
      3 C         138.1435  141.2248  161.0569 C.3     1  UNL1        0.0722
      4 N         137.9351  140.0837  162.0079 N.3     1  UNL1       -0.2724
      5 C         137.7224  140.3535  163.4681 C.3     1  UNL1        0.0722
      6 C         137.7182  141.7644  163.9772 C.3     1  UNL1        0.0211
      7 C         137.9224  144.3165  163.5353 C.3     1  UNL1        0.2071
      8 O         139.2183  145.0420  163.7451 O.3     1  UNL1       -0.4602
      9 C         140.4516  142.1638  168.7730 C.3     1  UNL1        0.1305
     10 N         140.8401  142.5553  167.3780 N.ar    1  UNL1       -0.3228
     11 C         140.0345  143.4105  166.4455 C.ar    1  UNL1        0.0806
     12 C         140.7990  143.5440  165.1619 C.ar    1  UNL1        0.0718
     13 C         140.4965  144.2693  163.8843 C.ar    1  UNL1        0.2262
     14 N         141.4720  144.2219  162.7458 N.ar    1  UNL1       -0.2116
     15 C         142.7502  143.4492  162.8850 C.ar    1  UNL1        0.0844
     16 C         143.7257  143.4018  161.7466 C.ar    1  UNL1        0.0192
     17 C         145.0038  142.6291  161.8858 C.ar    1  UNL1        0.0015
     18 C         145.3063  141.9038  163.1635 C.ar    1  UNL1        0.0001
     19 C         144.3308  141.9511  164.3019 C.ar    1  UNL1        0.0015
     20 C         143.0527  142.7239  164.1627 C.ar    1  UNL1        0.0194
     21 C         142.0771  142.7713  165.3011 C.ar    1  UNL1        0.0246
     22 C         142.1025  142.1602  166.6707 C.ar    1  UNL1        0.0762
     23 C         137.9393  138.6727  161.4988 C.3     1  UNL1        0.0768
     24 C         139.2355  137.9323  161.3520 C.3     1  UNL1        0.0437
     25 C         140.3171  138.1030  162.3772 C.ar    1  UNL1       -0.0208
     26 C         141.5312  138.9237  162.0571 C.ar    1  UNL1       -0.0045
     27 C         142.6128  139.0944  163.0824 C.ar    1  UNL1       -0.0022
     28 C         142.4802  138.4444  164.4277 C.ar    1  UNL1        0.0069
     29 C         141.2660  137.6237  164.7478 C.ar    1  UNL1       -0.0022
     30 C         140.1845  137.4531  163.7226 C.ar    1  UNL1       -0.0045
     31 C         143.5617  138.6151  165.4529 C.3     1  UNL1        0.1636
     32 O         143.2225  138.5812  166.9137 O.3     1  UNL1       -0.3772
     33 H         142.6674  139.3454  167.1345 H       1  UNL1        0.2109
@<TRIPOS>BOND
     1     9    10    1
     2    10    11   ar
     3    11    12   ar
     4    12    13   ar
     5    13     8    1
     6     8     7    1
     7     7     1    1
     8     1     2    1
     9     2     3    1
    10     3     4    1
    11     4    23    1
    12    23    24    1
    13    24    25    1
    14    25    26   ar
    15    26    27   ar
    16    27    28   ar
    17    28    31    1
    18    31    32    1
    19    28    29   ar
    20    29    30   ar
    21     4     5    1
    22     5     6    1
    23    13    14   ar
    24    14    15   ar
    25    15    16   ar
    26    16    17   ar
    27    17    18   ar
    28    18    19   ar
    29    19    20   ar
    30    20    21   ar
    31    21    22   ar
    32    22    10   ar
    33    21    12   ar
    34     6     1    1
    35    20    15   ar
    36    30    25   ar
    37    32    33    1
@<TRIPOS>MOLECULE
*****
 33 37 0 0 0
SMALL
GASTEIGER

@<TRIPOS>ATOM
      1 C         139.1176  138.0269  162.6661 C.3     1  UNL1        0.0466
      2 C         138.9434  138.1477  164.1510 C.3     1  UNL1        0.0211
      3 C         140.1464  138.2048  165.0452 C.3     1  UNL1        0.0722
      4 N         141.5237  138.1411  164.4544 N.3     1  UNL1       -0.2724
      5 C         141.6979  138.0203  162.9694 C.3     1  UNL1        0.0722
      6 C         140.4949  137.9632  162.0753 C.3     1  UNL1        0.0211
      7 C         137.9146  137.9698  161.7720 C.3     1  UNL1        0.2071
      8 O         137.3201  139.2369  161.2327 O.3     1  UNL1       -0.4602
      9 C         141.0690  141.9980  157.5712 C.3     1  UNL1        0.1305
     10 N         140.3156  141.9658  158.8679 N.ar    1  UNL1       -0.3228
     11 C         139.3940  140.8744  159.3253 C.ar    1  UNL1        0.0806
     12 C         138.8604  141.2535  160.6749 C.ar    1  UNL1        0.0718
     13 C         137.9120  140.5628  161.6095 C.ar    1  UNL1        0.2262
     14 N         137.5555  141.1978  162.9208 N.ar    1  UNL1       -0.2116
     15 C         138.1474  142.5237  163.2976 C.ar    1  UNL1        0.0844
     16 C         137.7909  143.1587  164.6089 C.ar    1  UNL1        0.0192
     17 C         138.3828  144.4845  164.9856 C.ar    1  UNL1        0.0015
     18 C         139.3312  145.1752  164.0510 C.ar    1  UNL1        0.0001
     19 C         139.6877  144.5402  162.7397 C.ar    1  UNL1        0.0015
     20 C         139.0958  143.2144  162.3630 C.ar    1  UNL1        0.0194
     21 C         139.4523  142.5793  161.0516 C.ar    1  UNL1        0.0246
     22 C         140.3517  143.0196  159.9349 C.ar    1  UNL1        0.0762
     23 C         142.7267  138.1982  165.3484 C.3     1  UNL1        0.0768
     24 C         143.0377  139.4537  166.1079 C.3     1  UNL1        0.0437
     25 C         143.2607  140.7407  165.3704 C.ar    1  UNL1       -0.0208
     26 C         142.2590  141.8517  165.4808 C.ar    1  UNL1       -0.0045
     27 C         142.4820  143.1387  164.7433 C.ar    1  UNL1       -0.0022
     28 C         143.7067  143.3147  163.8953 C.ar    1  UNL1        0.0069
     29 C         144.7085  142.2036  163.7849 C.ar    1  UNL1       -0.0022
     30 C         144.4854  140.9167  164.5224 C.ar    1  UNL1       -0.0045
     31 C         143.9297  144.6016  163.1578 C.3     1  UNL1        0.1636
     32 O         143.0199  144.9865  162.0290 O.3     1  UNL1       -0.3772
     33 H         143.1291  144.3591  161.2974 H       1  UNL1        0.2109
@<TRIPOS>BOND
     1     9    10    1
     2    10    11   ar
     3    11    12   ar
     4    12    13   ar
     5    13     8    1
     6     8     7    1
     7     7     1    1
     8     1     2    1
     9     2     3    1
    10     3     4    1
    11     4    23    1
    12    23    24    1
    13    24    25    1
    14    25    26   ar
    15    26    27   ar
    16    27    28   ar
    17    28    31    1
    18    31    32    1
    19    28    29   ar
    20    29    30   ar
    21     4     5    1
    22     5     6    1
    23    13    14   ar
    24    14    15   ar
    25    15    16   ar
    26    16    17   ar
    27    17    18   ar
    28    18    19   ar
    29    19    20   ar
    30    20    21   ar
    31    21    22   ar
    32    22    10   ar
    33    21    12   ar
    34     6     1    1
    35    20    15   ar
    36    30    25   ar
    37    32    33    1
