@<TRIPOS>MOLECULE
*****
 34 37 0 0 0
SMALL
GASTEIGER

@<TRIPOS>ATOM
      1 C         142.7671  138.2084  159.0581 C.ar    1  UNL1        0.2600
      2 N         142.2960  138.0315  160.4712 N.ar    1  UNL1       -0.1870
      3 C         143.0379  139.0095  161.3331 C.ar    1  UNL1        0.2036
      4 N         143.9676  139.7910  160.4527 N.ar    1  UNL1       -0.0556
      5 O         143.8003  139.2959  159.0467 O.2     1  UNL1       -0.3324
      6 C         142.8783  139.1769  162.8152 C.ar    1  UNL1        0.0388
      7 C         142.4120  138.0242  163.6541 C.ar    1  UNL1        0.0029
      8 C         142.2523  138.1916  165.1362 C.ar    1  UNL1       -0.0031
      9 C         142.5590  139.5116  165.7792 C.ar    1  UNL1       -0.0100
     10 C         143.0254  140.6642  164.9403 C.ar    1  UNL1       -0.0233
     11 C         143.1850  140.4969  163.4583 C.ar    1  UNL1       -0.0013
     12 C         143.3321  141.9842  165.5833 C.3     1  UNL1        0.0434
     13 C         143.1724  142.1516  167.0654 C.3     1  UNL1        0.0772
     14 N         142.7061  140.9989  167.9044 N.3     1  UNL1       -0.2657
     15 C         142.3994  139.6789  167.2614 C.3     1  UNL1        0.0989
     16 C         142.5464  141.1663  169.3865 C.3     1  UNL1        0.1169
     17 C         142.4342  142.5400  169.9783 C.3     1  UNL1        0.1555
     18 O         142.6543  142.7438  171.4480 O.3     1  UNL1       -0.3805
     19 H         141.9528  142.2949  171.9453 H       1  UNL1        0.2105
     20 C         142.4990  139.9599  170.2767 C.3     1  UNL1        0.1555
     21 O         143.6026  139.7110  171.2618 O.3     1  UNL1       -0.3805
     22 H         144.4270  139.5282  170.7845 H       1  UNL1        0.2105
     23 C         141.3329  135.8848  155.4813 C.ar    1  UNL1        0.1479
     24 C         142.7056  135.6395  156.0337 C.ar    1  UNL1        0.0377
     25 C         143.1837  136.4140  157.2260 C.ar    1  UNL1        0.0079
     26 C         142.2890  137.4339  157.8658 C.ar    1  UNL1        0.0569
     27 C         140.9162  137.6792  157.3133 C.ar    1  UNL1        0.0181
     28 C         140.4381  136.9048  156.1211 C.ar    1  UNL1        0.1024
     29 C         139.0653  137.1501  155.5686 C.1     1  UNL1        0.1035
     30 N         137.6925  137.3954  155.0161 N.1     1  UNL1       -0.1907
     31 O         140.8548  135.1103  154.2890 O.3     1  UNL1       -0.4785
     32 C         141.1770  132.6692  155.1180 C.3     1  UNL1        0.0472
     33 C         141.3486  133.7134  154.0549 C.3     1  UNL1        0.1662
     34 C         142.0140  133.3608  152.7576 C.3     1  UNL1        0.0472
@<TRIPOS>BOND
     1    32    33    1
     2    33    34    1
     3    33    31    1
     4    31    23    1
     5    23    24   ar
     6    24    25   ar
     7    25    26   ar
     8    26     1    1
     9     1     2   ar
    10     2     3   ar
    11     3     6    1
    12     6     7   ar
    13     7     8   ar
    14     8     9   ar
    15     9    10   ar
    16    10    11   ar
    17    10    12    1
    18    12    13    1
    19    13    14    1
    20    14    16    1
    21    16    17    1
    22    17    18    1
    23    16    20    1
    24    20    21    1
    25    14    15    1
    26     3     4   ar
    27     4     5   ar
    28    26    27   ar
    29    27    28   ar
    30    28    29    1
    31    29    30    3
    32    28    23   ar
    33     5     1   ar
    34    11     6   ar
    35    15     9    1
    36    18    19    1
    37    21    22    1
@<TRIPOS>MOLECULE
*****
 34 37 0 0 0
SMALL
GASTEIGER

@<TRIPOS>ATOM
      1 C         140.2772  145.2633  159.7540 C.ar    1  UNL1        0.2600
      2 N         140.6279  144.3458  160.8877 N.ar    1  UNL1       -0.1870
      3 C         140.0655  144.9314  162.1490 C.ar    1  UNL1        0.2036
      4 N         139.3672  146.2108  161.7948 N.ar    1  UNL1       -0.0556
      5 O         139.4979  146.4160  160.3147 O.2     1  UNL1       -0.3324
      6 C         140.1812  144.3413  163.5232 C.ar    1  UNL1        0.0388
      7 C         139.0148  144.3983  164.4645 C.ar    1  UNL1        0.0029
      8 C         139.1304  143.8082  165.8386 C.ar    1  UNL1       -0.0031
      9 C         140.4125  143.1609  166.2714 C.ar    1  UNL1       -0.0100
     10 C         141.5790  143.1039  165.3301 C.ar    1  UNL1       -0.0233
     11 C         141.4633  143.6940  163.9560 C.ar    1  UNL1       -0.0013
     12 C         142.8611  142.4566  165.7629 C.3     1  UNL1        0.0434
     13 C         142.9767  141.8665  167.1370 C.3     1  UNL1        0.0772
     14 N         141.8103  141.9235  168.0784 N.3     1  UNL1       -0.2657
     15 C         140.5282  142.5708  167.6456 C.3     1  UNL1        0.0989
     16 C         141.9260  141.3334  169.4526 C.3     1  UNL1        0.1169
     17 C         142.6775  140.0514  169.6575 C.3     1  UNL1        0.1555
     18 O         143.3852  139.7961  170.9551 O.3     1  UNL1       -0.3805
     19 H         144.1132  140.4291  171.0564 H       1  UNL1        0.2105
     20 C         141.2901  142.0251  170.6219 C.3     1  UNL1        0.1555
     21 O         142.0689  142.2274  171.8878 O.3     1  UNL1       -0.3805
     22 H         142.2584  141.3662  172.2920 H       1  UNL1        0.2105
     23 C         141.3705  144.6632  155.4304 C.ar    1  UNL1        0.1479
     24 C         141.6786  143.5948  156.4371 C.ar    1  UNL1        0.0377
     25 C         141.3142  143.7949  157.8783 C.ar    1  UNL1        0.0079
     26 C         140.6416  145.0633  158.3128 C.ar    1  UNL1        0.0569
     27 C         140.3335  146.1316  157.3060 C.ar    1  UNL1        0.0181
     28 C         140.6979  145.9317  155.8648 C.ar    1  UNL1        0.1024
     29 C         140.3898  147.0001  154.8580 C.1     1  UNL1        0.1035
     30 N         140.0817  148.0684  153.8512 N.1     1  UNL1       -0.1907
     31 O         141.7349  144.4632  153.9891 O.3     1  UNL1       -0.4785
     32 C         143.1744  146.0528  152.5225 C.3     1  UNL1        0.0472
     33 C         143.0764  144.9074  153.4861 C.3     1  UNL1        0.1662
     34 C         144.3199  144.2062  153.9467 C.3     1  UNL1        0.0472
@<TRIPOS>BOND
     1    32    33    1
     2    33    34    1
     3    33    31    1
     4    31    23    1
     5    23    24   ar
     6    24    25   ar
     7    25    26   ar
     8    26     1    1
     9     1     2   ar
    10     2     3   ar
    11     3     6    1
    12     6     7   ar
    13     7     8   ar
    14     8     9   ar
    15     9    10   ar
    16    10    11   ar
    17    10    12    1
    18    12    13    1
    19    13    14    1
    20    14    16    1
    21    16    17    1
    22    17    18    1
    23    16    20    1
    24    20    21    1
    25    14    15    1
    26     3     4   ar
    27     4     5   ar
    28    26    27   ar
    29    27    28   ar
    30    28    29    1
    31    29    30    3
    32    28    23   ar
    33     5     1   ar
    34    11     6   ar
    35    15     9    1
    36    18    19    1
    37    21    22    1
@<TRIPOS>MOLECULE
*****
 34 37 0 0 0
SMALL
GASTEIGER

@<TRIPOS>ATOM
      1 C         139.7484  138.6697  159.3762 C.ar    1  UNL1        0.2600
      2 N         140.3553  138.7131  160.7472 N.ar    1  UNL1       -0.1870
      3 C         139.3346  139.2813  161.6882 C.ar    1  UNL1        0.2036
      4 N         138.0969  139.5891  160.8986 N.ar    1  UNL1       -0.0556
      5 O         138.3526  139.2111  159.4697 O.2     1  UNL1       -0.3324
      6 C         139.5192  139.5028  163.1602 C.ar    1  UNL1        0.0388
      7 C         138.3622  139.9536  164.0017 C.ar    1  UNL1        0.0029
      8 C         138.5468  140.1750  165.4737 C.ar    1  UNL1       -0.0031
      9 C         139.8884  139.9457  166.1042 C.ar    1  UNL1       -0.0100
     10 C         141.0454  139.4949  165.2628 C.ar    1  UNL1       -0.0233
     11 C         140.8608  139.2734  163.7908 C.ar    1  UNL1       -0.0013
     12 C         142.3869  139.2655  165.8933 C.3     1  UNL1        0.0434
     13 C         142.5715  139.4870  167.3653 C.3     1  UNL1        0.0772
     14 N         141.4145  139.9378  168.2068 N.3     1  UNL1       -0.2657
     15 C         140.0730  140.1672  167.5763 C.3     1  UNL1        0.0989
     16 C         141.5991  140.1593  169.6788 C.3     1  UNL1        0.1169
     17 C         142.9618  140.4653  170.2262 C.3     1  UNL1        0.1555
     18 O         143.5819  139.5567  171.2459 O.3     1  UNL1       -0.3805
     19 H         143.0658  139.5916  172.0665 H       1  UNL1        0.2105
     20 C         140.4211  140.0748  170.6036 C.3     1  UNL1        0.1555
     21 O         140.5907  140.3747  172.0635 O.3     1  UNL1       -0.3805
     22 H         141.1625  139.7032  172.4673 H       1  UNL1        0.2105
     23 C         141.7616  137.1776  155.6385 C.ar    1  UNL1        0.1479
     24 C         142.5730  137.4462  156.8712 C.ar    1  UNL1        0.0377
     25 C         141.9019  137.9436  158.1171 C.ar    1  UNL1        0.0079
     26 C         140.4195  138.1723  158.1303 C.ar    1  UNL1        0.0569
     27 C         139.6082  137.9037  156.8975 C.ar    1  UNL1        0.0181
     28 C         140.2792  137.4063  155.6517 C.ar    1  UNL1        0.1024
     29 C         139.4679  137.1376  154.4190 C.1     1  UNL1        0.1035
     30 N         138.6566  136.8690  153.1862 N.1     1  UNL1       -0.1907
     31 O         142.4327  136.6802  154.3926 O.3     1  UNL1       -0.4785
     32 C         141.8215  134.6850  152.8449 C.3     1  UNL1        0.0472
     33 C         142.4650  135.2106  154.0937 C.3     1  UNL1        0.1662
     34 C         143.1408  134.2668  155.0437 C.3     1  UNL1        0.0472
@<TRIPOS>BOND
     1    32    33    1
     2    33    34    1
     3    33    31    1
     4    31    23    1
     5    23    24   ar
     6    24    25   ar
     7    25    26   ar
     8    26     1    1
     9     1     2   ar
    10     2     3   ar
    11     3     6    1
    12     6     7   ar
    13     7     8   ar
    14     8     9   ar
    15     9    10   ar
    16    10    11   ar
    17    10    12    1
    18    12    13    1
    19    13    14    1
    20    14    16    1
    21    16    17    1
    22    17    18    1
    23    16    20    1
    24    20    21    1
    25    14    15    1
    26     3     4   ar
    27     4     5   ar
    28    26    27   ar
    29    27    28   ar
    30    28    29    1
    31    29    30    3
    32    28    23   ar
    33     5     1   ar
    34    11     6   ar
    35    15     9    1
    36    18    19    1
    37    21    22    1
@<TRIPOS>MOLECULE
*****
 34 37 0 0 0
SMALL
GASTEIGER

@<TRIPOS>ATOM
      1 C         142.3442  144.2926  159.1902 C.ar    1  UNL1        0.2600
      2 N         142.0008  144.3029  160.6503 N.ar    1  UNL1       -0.1870
      3 C         143.0132  143.4626  161.3706 C.ar    1  UNL1        0.2036
      4 N         143.9824  142.9329  160.3556 N.ar    1  UNL1       -0.0556
      5 O         143.5690  143.4459  159.0080 O.2     1  UNL1       -0.3324
      6 C         143.0500  143.1983  162.8467 C.ar    1  UNL1        0.0388
      7 C         144.3668  143.0503  163.5495 C.ar    1  UNL1        0.0029
      8 C         144.4036  142.7860  165.0255 C.ar    1  UNL1       -0.0031
      9 C         143.1235  142.6697  165.7988 C.ar    1  UNL1       -0.0100
     10 C         141.8067  142.8177  165.0960 C.ar    1  UNL1       -0.0233
     11 C         141.7699  143.0820  163.6199 C.ar    1  UNL1       -0.0013
     12 C         140.5266  142.7014  165.8692 C.3     1  UNL1        0.0434
     13 C         140.5634  142.4371  167.3453 C.3     1  UNL1        0.0772
     14 N         141.8803  142.2891  168.0481 N.3     1  UNL1       -0.2657
     15 C         143.1603  142.4054  167.2749 C.3     1  UNL1        0.0989
     16 C         141.9170  142.0248  169.5242 C.3     1  UNL1        0.1169
     17 C         140.8439  142.5808  170.4127 C.3     1  UNL1        0.1555
     18 O         140.6824  142.0598  171.8099 O.3     1  UNL1       -0.3805
     19 H         140.4025  141.1316  171.7786 H       1  UNL1        0.2105
     20 C         143.0269  141.2046  170.1119 C.3     1  UNL1        0.1555
     21 O         142.7342  140.2205  171.2054 O.3     1  UNL1       -0.3805
     22 H         142.4458  140.6963  172.0000 H       1  UNL1        0.2105
     23 C         140.0953  146.4271  155.9289 C.ar    1  UNL1        0.1479
     24 C         139.5958  146.4792  157.3422 C.ar    1  UNL1        0.0377
     25 C         140.3454  145.7678  158.4293 C.ar    1  UNL1        0.0079
     26 C         141.5946  145.0041  158.1031 C.ar    1  UNL1        0.0569
     27 C         142.0941  144.9520  156.6896 C.ar    1  UNL1        0.0181
     28 C         141.3445  145.6634  155.6025 C.ar    1  UNL1        0.1024
     29 C         141.8440  145.6113  154.1891 C.1     1  UNL1        0.1035
     30 N         142.3435  145.5591  152.7757 N.1     1  UNL1       -0.1907
     31 O         139.3457  147.1386  154.8417 O.3     1  UNL1       -0.4785
     32 C         138.7487  149.5801  155.4994 C.3     1  UNL1        0.0472
     33 C         139.5235  148.6157  154.6510 C.3     1  UNL1        0.1662
     34 C         140.4761  149.1285  153.6120 C.3     1  UNL1        0.0472
@<TRIPOS>BOND
     1    32    33    1
     2    33    34    1
     3    33    31    1
     4    31    23    1
     5    23    24   ar
     6    24    25   ar
     7    25    26   ar
     8    26     1    1
     9     1     2   ar
    10     2     3   ar
    11     3     6    1
    12     6     7   ar
    13     7     8   ar
    14     8     9   ar
    15     9    10   ar
    16    10    11   ar
    17    10    12    1
    18    12    13    1
    19    13    14    1
    20    14    16    1
    21    16    17    1
    22    17    18    1
    23    16    20    1
    24    20    21    1
    25    14    15    1
    26     3     4   ar
    27     4     5   ar
    28    26    27   ar
    29    27    28   ar
    30    28    29    1
    31    29    30    3
    32    28    23   ar
    33     5     1   ar
    34    11     6   ar
    35    15     9    1
    36    18    19    1
    37    21    22    1
@<TRIPOS>MOLECULE
*****
 34 37 0 0 0
SMALL
GASTEIGER

@<TRIPOS>ATOM
      1 C         139.4687  139.1309  159.9013 C.ar    1  UNL1        0.2600
      2 N         140.0539  139.1958  161.2809 N.ar    1  UNL1       -0.1870
      3 C         138.9643  139.6031  162.2280 C.ar    1  UNL1        0.2036
      4 N         137.7056  139.7898  161.4337 N.ar    1  UNL1       -0.0556
      5 O         138.0173  139.4979  159.9957 O.2     1  UNL1       -0.3324
      6 C         139.1081  139.7907  163.7093 C.ar    1  UNL1        0.0388
      7 C         138.6428  138.7187  164.6497 C.ar    1  UNL1        0.0029
      8 C         138.7866  138.9064  166.1309 C.ar    1  UNL1       -0.0031
      9 C         139.3956  140.1659  166.6717 C.ar    1  UNL1       -0.0100
     10 C         139.8609  141.2379  165.7313 C.ar    1  UNL1       -0.0233
     11 C         139.7171  141.0502  164.2501 C.ar    1  UNL1       -0.0013
     12 C         140.4700  142.4975  166.2721 C.3     1  UNL1        0.0434
     13 C         140.6138  142.6851  167.7534 C.3     1  UNL1        0.0772
     14 N         140.1485  141.6131  168.6939 N.3     1  UNL1       -0.2657
     15 C         139.5394  140.3535  168.1530 C.3     1  UNL1        0.0989
     16 C         140.2923  141.8008  170.1751 C.3     1  UNL1        0.1169
     17 C         140.7479  140.6592  171.0350 C.3     1  UNL1        0.1555
     18 O         142.0548  140.7459  171.7659 O.3     1  UNL1       -0.3805
     19 H         142.7828  140.7671  171.1252 H       1  UNL1        0.2105
     20 C         139.9805  143.1299  170.7965 C.3     1  UNL1        0.1555
     21 O         138.6880  143.3296  171.5312 O.3     1  UNL1       -0.3805
     22 H         137.9481  143.2645  170.9073 H       1  UNL1        0.2105
     23 C         141.6788  138.0283  156.1398 C.ar    1  UNL1        0.1479
     24 C         140.3179  137.4562  156.4050 C.ar    1  UNL1        0.0377
     25 C         139.5812  137.8237  157.6589 C.ar    1  UNL1        0.0079
     26 C         140.2054  138.7633  158.6475 C.ar    1  UNL1        0.0569
     27 C         141.5664  139.3354  158.3822 C.ar    1  UNL1        0.0181
     28 C         142.3032  138.9680  157.1285 C.ar    1  UNL1        0.1024
     29 C         143.6642  139.5401  156.8632 C.1     1  UNL1        0.1035
     30 N         145.0251  140.1122  156.5979 N.1     1  UNL1       -0.1907
     31 O         142.4156  137.6607  154.8860 O.3     1  UNL1       -0.4785
     32 C         144.0205  135.7087  155.4892 C.3     1  UNL1        0.0472
     33 C         142.8823  136.2507  154.6763 C.3     1  UNL1        0.1662
     34 C         142.2109  135.3828  153.6536 C.3     1  UNL1        0.0472
@<TRIPOS>BOND
     1    32    33    1
     2    33    34    1
     3    33    31    1
     4    31    23    1
     5    23    24   ar
     6    24    25   ar
     7    25    26   ar
     8    26     1    1
     9     1     2   ar
    10     2     3   ar
    11     3     6    1
    12     6     7   ar
    13     7     8   ar
    14     8     9   ar
    15     9    10   ar
    16    10    11   ar
    17    10    12    1
    18    12    13    1
    19    13    14    1
    20    14    16    1
    21    16    17    1
    22    17    18    1
    23    16    20    1
    24    20    21    1
    25    14    15    1
    26     3     4   ar
    27     4     5   ar
    28    26    27   ar
    29    27    28   ar
    30    28    29    1
    31    29    30    3
    32    28    23   ar
    33     5     1   ar
    34    11     6   ar
    35    15     9    1
    36    18    19    1
    37    21    22    1
@<TRIPOS>MOLECULE
*****
 34 37 0 0 0
SMALL
GASTEIGER

@<TRIPOS>ATOM
      1 C         142.7802  138.3091  159.2819 C.ar    1  UNL1        0.2600
      2 N         142.2896  138.2124  160.6961 N.ar    1  UNL1       -0.1870
      3 C         143.1477  139.1016  161.5463 C.ar    1  UNL1        0.2036
      4 N         144.1687  139.7479  160.6575 N.ar    1  UNL1       -0.0556
      5 O         143.9416  139.2582  159.2581 O.2     1  UNL1       -0.3324
      6 C         143.0092  139.3083  163.0256 C.ar    1  UNL1        0.0388
      7 C         142.5902  138.1686  163.9061 C.ar    1  UNL1        0.0029
      8 C         142.4517  138.3753  165.3853 C.ar    1  UNL1       -0.0031
      9 C         142.7323  139.7217  165.9839 C.ar    1  UNL1       -0.0100
     10 C         143.1513  140.8615  165.1034 C.ar    1  UNL1       -0.0233
     11 C         143.2898  140.6547  163.6242 C.ar    1  UNL1       -0.0013
     12 C         143.4318  142.2079  165.7021 C.3     1  UNL1        0.0434
     13 C         143.2934  142.4146  167.1812 C.3     1  UNL1        0.0772
     14 N         142.8743  141.2748  168.0619 N.3     1  UNL1       -0.2657
     15 C         142.5938  139.9284  167.4632 C.3     1  UNL1        0.0989
     16 C         142.7359  141.4816  169.5411 C.3     1  UNL1        0.1169
     17 C         142.1260  140.4092  170.3944 C.3     1  UNL1        0.1555
     18 O         142.2010  140.5070  171.8893 O.3     1  UNL1       -0.3805
     19 H         143.1259  140.4331  172.1721 H       1  UNL1        0.2105
     20 C         143.2073  142.7606  170.1670 C.3     1  UNL1        0.1555
     21 O         144.6738  142.9981  170.3747 O.3     1  UNL1       -0.3805
     22 H         145.0152  142.3639  171.0244 H       1  UNL1        0.2105
     23 C         141.0684  136.1341  155.7338 C.ar    1  UNL1        0.1479
     24 C         140.4063  137.3813  156.2398 C.ar    1  UNL1        0.0377
     25 C         140.9769  138.1063  157.4225 C.ar    1  UNL1        0.0079
     26 C         142.2096  137.5841  158.0992 C.ar    1  UNL1        0.0569
     27 C         142.8716  136.3369  157.5931 C.ar    1  UNL1        0.0181
     28 C         142.3011  135.6118  156.4105 C.ar    1  UNL1        0.1024
     29 C         142.9631  134.3646  155.9045 C.1     1  UNL1        0.1035
     30 N         143.6252  133.1174  155.3984 N.1     1  UNL1       -0.1907
     31 O         140.4978  135.4091  154.5511 O.3     1  UNL1       -0.4785
     32 C         141.7641  134.7830  152.3706 C.3     1  UNL1        0.0472
     33 C         140.9510  135.7614  153.1653 C.3     1  UNL1        0.1662
     34 C         140.5910  137.0922  152.5742 C.3     1  UNL1        0.0472
@<TRIPOS>BOND
     1    32    33    1
     2    33    34    1
     3    33    31    1
     4    31    23    1
     5    23    24   ar
     6    24    25   ar
     7    25    26   ar
     8    26     1    1
     9     1     2   ar
    10     2     3   ar
    11     3     6    1
    12     6     7   ar
    13     7     8   ar
    14     8     9   ar
    15     9    10   ar
    16    10    11   ar
    17    10    12    1
    18    12    13    1
    19    13    14    1
    20    14    16    1
    21    16    17    1
    22    17    18    1
    23    16    20    1
    24    20    21    1
    25    14    15    1
    26     3     4   ar
    27     4     5   ar
    28    26    27   ar
    29    27    28   ar
    30    28    29    1
    31    29    30    3
    32    28    23   ar
    33     5     1   ar
    34    11     6   ar
    35    15     9    1
    36    18    19    1
    37    21    22    1
@<TRIPOS>MOLECULE
*****
 34 37 0 0 0
SMALL
GASTEIGER

@<TRIPOS>ATOM
      1 C         138.2247  141.3262  159.5948 C.ar    1  UNL1        0.2600
      2 N         138.7700  141.6284  160.9591 N.ar    1  UNL1       -0.1870
      3 C         138.4024  140.4926  161.8673 C.ar    1  UNL1        0.2036
      4 N         137.6298  139.4885  161.0643 N.ar    1  UNL1       -0.0556
      5 O         137.5199  140.0036  159.6598 O.2     1  UNL1       -0.3324
      6 C         138.7468  140.3806  163.3229 C.ar    1  UNL1        0.0388
      7 C         138.5151  139.0901  164.0514 C.ar    1  UNL1        0.0029
      8 C         138.8595  138.9781  165.5069 C.ar    1  UNL1       -0.0031
      9 C         139.4357  140.1568  166.2341 C.ar    1  UNL1       -0.0100
     10 C         139.6675  141.4473  165.5057 C.ar    1  UNL1       -0.0233
     11 C         139.3230  141.5593  164.0501 C.ar    1  UNL1       -0.0013
     12 C         140.2437  142.6260  166.2329 C.3     1  UNL1        0.0434
     13 C         140.5881  142.5140  167.6885 C.3     1  UNL1        0.0772
     14 N         140.3564  141.2234  168.4170 N.3     1  UNL1       -0.2657
     15 C         139.7802  140.0448  167.6898 C.3     1  UNL1        0.0989
     16 C         140.7009  141.1115  169.8725 C.3     1  UNL1        0.1169
     17 C         140.7545  139.7638  170.5291 C.3     1  UNL1        0.1555
     18 O         139.6438  139.3275  171.4379 O.3     1  UNL1       -0.3805
     19 H         139.6308  139.8920  172.2267 H       1  UNL1        0.2105
     20 C         140.9917  142.3471  170.6716 C.3     1  UNL1        0.1555
     21 O         141.9204  142.2785  171.8476 O.3     1  UNL1       -0.3805
     22 H         141.5248  141.7266  172.5403 H       1  UNL1        0.2105
     23 C         138.6312  143.9302  155.9474 C.ar    1  UNL1        0.1479
     24 C         139.5528  144.1253  157.1146 C.ar    1  UNL1        0.0377
     25 C         139.4173  143.2573  158.3304 C.ar    1  UNL1        0.0079
     26 C         138.3602  142.1942  158.3790 C.ar    1  UNL1        0.0569
     27 C         137.4386  141.9992  157.2117 C.ar    1  UNL1        0.0181
     28 C         137.5740  142.8670  155.9959 C.ar    1  UNL1        0.1024
     29 C         136.6524  142.6720  154.8286 C.1     1  UNL1        0.1035
     30 N         135.7309  142.4769  153.6613 N.1     1  UNL1       -0.1907
     31 O         138.7668  144.7981  154.7315 O.3     1  UNL1       -0.4785
     32 C         140.9201  146.2000  154.3471 C.3     1  UNL1        0.0472
     33 C         139.4999  146.1038  154.8200 C.3     1  UNL1        0.1662
     34 C         138.8127  147.3131  155.3815 C.3     1  UNL1        0.0472
@<TRIPOS>BOND
     1    32    33    1
     2    33    34    1
     3    33    31    1
     4    31    23    1
     5    23    24   ar
     6    24    25   ar
     7    25    26   ar
     8    26     1    1
     9     1     2   ar
    10     2     3   ar
    11     3     6    1
    12     6     7   ar
    13     7     8   ar
    14     8     9   ar
    15     9    10   ar
    16    10    11   ar
    17    10    12    1
    18    12    13    1
    19    13    14    1
    20    14    16    1
    21    16    17    1
    22    17    18    1
    23    16    20    1
    24    20    21    1
    25    14    15    1
    26     3     4   ar
    27     4     5   ar
    28    26    27   ar
    29    27    28   ar
    30    28    29    1
    31    29    30    3
    32    28    23   ar
    33     5     1   ar
    34    11     6   ar
    35    15     9    1
    36    18    19    1
    37    21    22    1
@<TRIPOS>MOLECULE
*****
 34 37 0 0 0
SMALL
GASTEIGER

@<TRIPOS>ATOM
      1 C         144.3446  142.6714  159.4519 C.ar    1  UNL1        0.2600
      2 N         144.4956  141.9047  160.7323 N.ar    1  UNL1       -0.1870
      3 C         143.4360  142.3771  161.6832 C.ar    1  UNL1        0.2036
      4 N         142.6301  143.4357  160.9905 N.ar    1  UNL1       -0.0556
      5 O         143.1916  143.6176  159.6115 O.2     1  UNL1       -0.3324
      6 C         143.2202  141.8784  163.0813 C.ar    1  UNL1        0.0388
      7 C         144.0290  140.7265  163.6000 C.ar    1  UNL1        0.0029
      8 C         143.8132  140.2278  164.9981 C.ar    1  UNL1       -0.0031
      9 C         142.7885  140.8811  165.8775 C.ar    1  UNL1       -0.0100
     10 C         141.9797  142.0329  165.3589 C.ar    1  UNL1       -0.0233
     11 C         142.1956  142.5316  163.9608 C.ar    1  UNL1       -0.0013
     12 C         140.9551  142.6861  166.2383 C.3     1  UNL1        0.0434
     13 C         140.7393  142.1875  167.6364 C.3     1  UNL1        0.0772
     14 N         141.5481  141.0356  168.1551 N.3     1  UNL1       -0.2657
     15 C         142.5727  140.3824  167.2757 C.3     1  UNL1        0.0989
     16 C         141.3322  140.5369  169.5532 C.3     1  UNL1        0.1169
     17 C         139.9485  140.1994  170.0239 C.3     1  UNL1        0.1555
     18 O         139.7553  139.4503  171.3090 O.3     1  UNL1       -0.3805
     19 H         140.1191  138.5555  171.2195 H       1  UNL1        0.2105
     20 C         142.5000  140.3758  170.4807 C.3     1  UNL1        0.1555
     21 O         142.3420  140.6683  171.9435 O.3     1  UNL1       -0.3805
     22 H         142.1660  141.6142  172.0669 H       1  UNL1        0.2105
     23 C         146.9014  142.2134  155.7774 C.ar    1  UNL1        0.1479
     24 C         147.4781  142.8218  157.0212 C.ar    1  UNL1        0.0377
     25 C         146.6258  142.9744  158.2461 C.ar    1  UNL1        0.0079
     26 C         145.1969  142.5187  158.2271 C.ar    1  UNL1        0.0569
     27 C         144.6202  141.9103  156.9832 C.ar    1  UNL1        0.0181
     28 C         145.4723  141.7576  155.7583 C.ar    1  UNL1        0.1024
     29 C         144.8957  141.1492  154.5144 C.1     1  UNL1        0.1035
     30 N         144.3190  140.5408  153.2705 N.1     1  UNL1       -0.1907
     31 O         147.7537  142.0607  154.5525 O.3     1  UNL1       -0.4785
     32 C         149.5058  143.3262  153.1108 C.3     1  UNL1        0.0472
     33 C         148.1563  143.2711  153.7633 C.3     1  UNL1        0.1662
     34 C         147.2093  144.4263  153.6265 C.3     1  UNL1        0.0472
@<TRIPOS>BOND
     1    32    33    1
     2    33    34    1
     3    33    31    1
     4    31    23    1
     5    23    24   ar
     6    24    25   ar
     7    25    26   ar
     8    26     1    1
     9     1     2   ar
    10     2     3   ar
    11     3     6    1
    12     6     7   ar
    13     7     8   ar
    14     8     9   ar
    15     9    10   ar
    16    10    11   ar
    17    10    12    1
    18    12    13    1
    19    13    14    1
    20    14    16    1
    21    16    17    1
    22    17    18    1
    23    16    20    1
    24    20    21    1
    25    14    15    1
    26     3     4   ar
    27     4     5   ar
    28    26    27   ar
    29    27    28   ar
    30    28    29    1
    31    29    30    3
    32    28    23   ar
    33     5     1   ar
    34    11     6   ar
    35    15     9    1
    36    18    19    1
    37    21    22    1
@<TRIPOS>MOLECULE
*****
 34 37 0 0 0
SMALL
GASTEIGER

@<TRIPOS>ATOM
      1 C         138.8518  142.1980  163.4969 C.ar    1  UNL1        0.2600
      2 N         139.8964  142.6274  162.5098 N.ar    1  UNL1       -0.1870
      3 C         139.1964  143.2159  161.3208 C.ar    1  UNL1        0.2036
      4 N         137.7192  143.1503  161.5731 N.ar    1  UNL1       -0.0556
      5 O         137.5062  142.5212  162.9181 O.2     1  UNL1       -0.3324
      6 C         139.8576  143.7724  160.0947 C.ar    1  UNL1        0.0388
      7 C         140.8121  144.9233  160.2142 C.ar    1  UNL1        0.0029
      8 C         141.4732  145.4797  158.9881 C.ar    1  UNL1       -0.0031
      9 C         141.1797  144.8853  157.6426 C.ar    1  UNL1       -0.0100
     10 C         140.2251  143.7345  157.5230 C.ar    1  UNL1       -0.0233
     11 C         139.5641  143.1781  158.7491 C.ar    1  UNL1       -0.0013
     12 C         139.9316  143.1401  156.1775 C.3     1  UNL1        0.0434
     13 C         140.5927  143.6966  154.9514 C.3     1  UNL1        0.0772
     14 N         141.5474  144.8475  155.0709 N.3     1  UNL1       -0.2657
     15 C         141.8409  145.4418  156.4164 C.3     1  UNL1        0.0989
     16 C         142.2084  145.4039  153.8448 C.3     1  UNL1        0.1169
     17 C         141.4727  146.3773  152.9722 C.3     1  UNL1        0.1555
     18 O         140.1623  146.9492  153.4259 O.3     1  UNL1       -0.3805
     19 H         139.5002  146.2420  153.4742 H       1  UNL1        0.2105
     20 C         143.6053  144.9870  153.4912 C.3     1  UNL1        0.1555
     21 O         144.4388  145.8472  152.5881 O.3     1  UNL1       -0.3805
     22 H         144.0447  145.8625  151.7019 H       1  UNL1        0.2105
     23 C         139.6198  140.2775  167.4934 C.ar    1  UNL1        0.1479
     24 C         140.4420  141.4533  167.0560 C.ar    1  UNL1        0.0377
     25 C         140.1860  142.0935  165.7238 C.ar    1  UNL1        0.0079
     26 C         139.1078  141.5578  164.8291 C.ar    1  UNL1        0.0569
     27 C         138.2856  140.3820  165.2666 C.ar    1  UNL1        0.0181
     28 C         138.5416  139.7418  166.5986 C.ar    1  UNL1        0.1024
     29 C         137.7194  138.5660  167.0361 C.1     1  UNL1        0.1035
     30 N         136.8972  137.3901  167.4736 N.1     1  UNL1       -0.1907
     31 O         139.8759  139.6374  168.8255 O.3     1  UNL1       -0.4785
     32 C         140.6507  141.3308  170.6371 C.3     1  UNL1        0.0472
     33 C         140.9482  140.1785  169.7240 C.3     1  UNL1        0.1662
     34 C         142.3179  139.5674  169.7094 C.3     1  UNL1        0.0472
@<TRIPOS>BOND
     1    32    33    1
     2    33    34    1
     3    33    31    1
     4    31    23    1
     5    23    24   ar
     6    24    25   ar
     7    25    26   ar
     8    26     1    1
     9     1     2   ar
    10     2     3   ar
    11     3     6    1
    12     6     7   ar
    13     7     8   ar
    14     8     9   ar
    15     9    10   ar
    16    10    11   ar
    17    10    12    1
    18    12    13    1
    19    13    14    1
    20    14    16    1
    21    16    17    1
    22    17    18    1
    23    16    20    1
    24    20    21    1
    25    14    15    1
    26     3     4   ar
    27     4     5   ar
    28    26    27   ar
    29    27    28   ar
    30    28    29    1
    31    29    30    3
    32    28    23   ar
    33     5     1   ar
    34    11     6   ar
    35    15     9    1
    36    18    19    1
    37    21    22    1
