@<TRIPOS>MOLECULE
*****
 36 39 0 0 0
SMALL
GASTEIGER

@<TRIPOS>ATOM
      1 N         140.8646  138.3828  160.1155 N.am    1  UNL1       -0.2999
      2 C         142.0775  138.9992  159.4841 C.2     1  UNL1        0.2701
      3 O         142.9951  139.8578  160.3031 O.2     1  UNL1       -0.2706
      4 H         140.2624  137.8193  159.5780 H       1  UNL1        0.1496
      5 N         140.1514  138.9678  163.6174 N.3     1  UNL1       -0.2711
      6 C         139.9092  139.7242  162.3450 C.3     1  UNL1        0.0933
      7 C         140.5692  138.6251  161.5661 C.3     1  UNL1        0.1035
      8 C         140.8114  137.8688  162.8386 C.3     1  UNL1        0.0933
      9 C         139.2653  139.6946  167.9691 C.3     1  UNL1        0.0752
     10 C         138.2502  139.0122  167.1008 C.3     1  UNL1        0.0188
     11 C         138.5456  138.7699  165.6502 C.3     1  UNL1        0.0174
     12 C         139.8560  139.2101  165.0680 C.3     1  UNL1        0.0577
     13 C         140.8711  139.8925  165.9363 C.3     1  UNL1        0.0174
     14 C         140.5758  140.1348  167.3867 C.3     1  UNL1        0.0188
     15 N         138.9700  139.9369  169.4196 N.3     1  UNL1       -0.1846
     16 H         138.1527  140.5460  169.4559 H       1  UNL1        0.1484
     17 C         141.0529  141.1762  171.1876 C.3     1  UNL1        0.1957
     18 S         140.0115  140.5565  170.3036 S.O2    1  UNL1        0.0426
     19 O         139.2781  141.8640  170.2512 O.2     1  UNL1       -0.1575
     20 O         140.7449  139.2491  170.3561 O.2     1  UNL1       -0.1575
     21 C         142.3729  138.7570  158.0336 C.3     1  UNL1        0.2850
     22 N         143.0437  137.4848  157.6070 N.pl3   1  UNL1       -0.2091
     23 H         143.9608  137.2877  157.9059 H       1  UNL1        0.2928
     24 C         142.3170  136.5130  156.7252 C.2     1  UNL1        0.3493
     25 N         141.2006  136.8447  155.7799 N.2     1  UNL1        0.0798
     26 N         140.7729  135.5755  155.1044 N.2     1  UNL1       -0.0381
     27 C         141.6250  134.4595  155.6320 C.2     1  UNL1        0.1169
     28 C         141.6552  132.9907  155.3298 C.3     1  UNL1        0.0759
     29 C         142.6398  132.1012  156.0293 C.2     1  UNL1       -0.0158
     30 C         143.5942  132.6805  157.0310 C.2     1  UNL1        0.0678
     31 C         143.5639  134.1494  157.3333 C.2     1  UNL1        0.0123
     32 C         142.5794  135.0389  156.6338 C.2     1  UNL1        0.1019
     33 C         144.5788  131.7910  157.7305 C.3     1  UNL1        0.4183
     34 F         145.5633  130.9014  158.4300 F       1  UNL1       -0.1659
     35 F         145.2710  132.9978  158.2911 F       1  UNL1       -0.1659
     36 F         143.8866  130.5841  157.1700 F       1  UNL1       -0.1659
@<TRIPOS>BOND
     1    17    18    1
     2    18    19    2
     3    18    20    2
     4    18    15    1
     5     9    15    1
     6     9    10    1
     7    10    11    1
     8    11    12    1
     9    12     5    1
    10     5     6    1
    11     6     7    1
    12     7     1    1
    13     1     2   am
    14     2     3    2
    15     2    21    1
    16    21    22    1
    17    22    24    1
    18    24    25    2
    19    25    26    1
    20    26    27    2
    21    27    28    1
    22    28    29    1
    23    29    30    2
    24    30    33    1
    25    33    34    1
    26    33    35    1
    27    33    36    1
    28    30    31    1
    29    31    32    2
    30     7     8    1
    31    12    13    1
    32    13    14    1
    33    14     9    1
    34     8     5    1
    35    32    24    1
    36    32    27    1
    37    15    16    1
    38     1     4    1
    39    22    23    1
@<TRIPOS>MOLECULE
*****
 36 39 0 0 0
SMALL
GASTEIGER

@<TRIPOS>ATOM
      1 N         141.3853  138.3031  160.1566 N.am    1  UNL1       -0.2999
      2 C         142.6659  138.4102  159.3829 C.2     1  UNL1        0.2701
      3 O         143.9310  138.8166  160.0789 O.2     1  UNL1       -0.2706
      4 H         140.5550  138.0364  159.6998 H       1  UNL1        0.1496
      5 N         141.3480  139.0259  163.7049 N.3     1  UNL1       -0.2711
      6 C         141.3053  137.7761  162.8766 C.3     1  UNL1        0.0933
      7 C         141.3699  138.6026  161.6264 C.3     1  UNL1        0.1035
      8 C         141.4126  139.8523  162.4547 C.3     1  UNL1        0.0933
      9 C         141.3017  139.9242  168.1141 C.3     1  UNL1        0.0752
     10 C         142.5770  139.4990  167.4487 C.3     1  UNL1        0.0188
     11 C         142.5924  139.1996  165.9790 C.3     1  UNL1        0.0174
     12 C         141.3326  139.3253  165.1747 C.3     1  UNL1        0.0577
     13 C         140.0573  139.7506  165.8401 C.3     1  UNL1        0.0174
     14 C         140.0418  140.0500  167.3097 C.3     1  UNL1        0.0188
     15 N         141.2862  140.2236  169.5838 N.3     1  UNL1       -0.1846
     16 H         140.8418  139.4279  170.0417 H       1  UNL1        0.1484
     17 C         139.9073  142.6874  170.5980 C.3     1  UNL1        0.1957
     18 S         140.5967  141.4556  170.0909 S.O2    1  UNL1        0.0426
     19 O         141.6598  142.3084  169.4644 O.2     1  UNL1       -0.1575
     20 O         139.5336  140.6027  170.7174 O.2     1  UNL1       -0.1575
     21 C         142.6813  138.1108  157.9132 C.3     1  UNL1        0.2850
     22 N         143.3314  136.8559  157.4102 N.pl3   1  UNL1       -0.2091
     23 H         144.2713  136.6653  157.6324 H       1  UNL1        0.2928
     24 C         142.5492  135.8915  156.5687 C.2     1  UNL1        0.3493
     25 N         141.4586  136.2478  155.6024 N.2     1  UNL1        0.0798
     26 N         140.9557  134.9779  154.9823 N.2     1  UNL1       -0.0381
     27 C         141.7355  133.8368  155.5653 C.2     1  UNL1        0.1169
     28 C         141.6760  132.3566  155.3301 C.3     1  UNL1        0.0759
     29 C         142.6013  131.4410  156.0753 C.2     1  UNL1       -0.0158
     30 C         143.5862  132.0056  157.0558 C.2     1  UNL1        0.0678
     31 C         143.6457  133.4859  157.2910 C.2     1  UNL1        0.0123
     32 C         142.7203  134.4014  156.5458 C.2     1  UNL1        0.1019
     33 C         144.5115  131.0900  157.8010 C.3     1  UNL1        0.4183
     34 F         145.4368  130.1743  158.5462 F       1  UNL1       -0.1659
     35 F         145.5633  132.1594  157.8092 F       1  UNL1       -0.1659
     36 F         143.4598  130.0205  157.7928 F       1  UNL1       -0.1659
@<TRIPOS>BOND
     1    17    18    1
     2    18    19    2
     3    18    20    2
     4    18    15    1
     5     9    15    1
     6     9    10    1
     7    10    11    1
     8    11    12    1
     9    12     5    1
    10     5     6    1
    11     6     7    1
    12     7     1    1
    13     1     2   am
    14     2     3    2
    15     2    21    1
    16    21    22    1
    17    22    24    1
    18    24    25    2
    19    25    26    1
    20    26    27    2
    21    27    28    1
    22    28    29    1
    23    29    30    2
    24    30    33    1
    25    33    34    1
    26    33    35    1
    27    33    36    1
    28    30    31    1
    29    31    32    2
    30     7     8    1
    31    12    13    1
    32    13    14    1
    33    14     9    1
    34     8     5    1
    35    32    24    1
    36    32    27    1
    37    15    16    1
    38     1     4    1
    39    22    23    1
@<TRIPOS>MOLECULE
*****
 36 39 0 0 0
SMALL
GASTEIGER

@<TRIPOS>ATOM
      1 N         137.7817  140.8030  160.1680 N.am    1  UNL1       -0.2999
      2 C         138.9167  140.8467  159.1884 C.2     1  UNL1        0.2701
      3 O         140.3313  140.7304  159.6737 O.2     1  UNL1       -0.2706
      4 H         136.8533  140.8793  159.8494 H       1  UNL1        0.1496
      5 N         138.4565  140.4172  163.7049 N.3     1  UNL1       -0.2711
      6 C         137.7743  141.4537  162.8622 C.3     1  UNL1        0.0933
      7 C         138.0612  140.6432  161.6330 C.3     1  UNL1        0.1035
      8 C         138.7434  139.6067  162.4758 C.3     1  UNL1        0.0933
      9 C         139.2952  139.9376  168.1000 C.3     1  UNL1        0.0752
     10 C         138.2906  139.0500  167.4269 C.3     1  UNL1        0.0188
     11 C         138.0111  139.2099  165.9619 C.3     1  UNL1        0.0174
     12 C         138.7361  140.2573  165.1699 C.3     1  UNL1        0.0577
     13 C         139.7407  141.1449  165.8430 C.3     1  UNL1        0.0174
     14 C         140.0202  140.9850  167.3080 C.3     1  UNL1        0.0188
     15 N         139.5748  139.7778  169.5650 N.3     1  UNL1       -0.1846
     16 H         138.6724  139.6619  170.0261 H       1  UNL1        0.1484
     17 C         141.0391  141.9302  171.0560 C.3     1  UNL1        0.1957
     18 S         140.3070  140.8540  170.3105 S.O2    1  UNL1        0.0426
     19 O         139.0209  141.6051  170.4892 O.2     1  UNL1       -0.1575
     20 O         141.5931  140.1030  170.1318 O.2     1  UNL1       -0.1575
     21 C         138.6372  141.0065  157.7233 C.3     1  UNL1        0.2850
     22 N         137.5753  140.1746  157.0672 N.pl3   1  UNL1       -0.2091
     23 H         137.5412  139.2039  157.2277 H       1  UNL1        0.2928
     24 C         136.5653  140.8218  156.1666 C.2     1  UNL1        0.3493
     25 N         136.8642  141.7761  155.0487 N.2     1  UNL1        0.0798
     26 N         135.5627  142.1723  154.4170 N.2     1  UNL1       -0.0381
     27 C         134.4593  141.4628  155.1445 C.2     1  UNL1        0.1169
     28 C         132.9705  141.4690  154.9621 C.3     1  UNL1        0.0759
     29 C         132.1014  140.6404  155.8609 C.2     1  UNL1       -0.0158
     30 C         132.7210  139.8057  156.9422 C.2     1  UNL1        0.0678
     31 C         134.2098  139.7995  157.1247 C.2     1  UNL1        0.0123
     32 C         135.0790  140.6281  156.2259 C.2     1  UNL1        0.1019
     33 C         131.8518  138.9771  157.8411 C.3     1  UNL1        0.4183
     34 F         130.9826  138.1485  158.7400 F       1  UNL1       -0.1659
     35 F         130.7148  139.9303  157.6204 F       1  UNL1       -0.1659
     36 F         132.9887  138.0239  158.0619 F       1  UNL1       -0.1659
@<TRIPOS>BOND
     1    17    18    1
     2    18    19    2
     3    18    20    2
     4    18    15    1
     5     9    15    1
     6     9    10    1
     7    10    11    1
     8    11    12    1
     9    12     5    1
    10     5     6    1
    11     6     7    1
    12     7     1    1
    13     1     2   am
    14     2     3    2
    15     2    21    1
    16    21    22    1
    17    22    24    1
    18    24    25    2
    19    25    26    1
    20    26    27    2
    21    27    28    1
    22    28    29    1
    23    29    30    2
    24    30    33    1
    25    33    34    1
    26    33    35    1
    27    33    36    1
    28    30    31    1
    29    31    32    2
    30     7     8    1
    31    12    13    1
    32    13    14    1
    33    14     9    1
    34     8     5    1
    35    32    24    1
    36    32    27    1
    37    15    16    1
    38     1     4    1
    39    22    23    1
@<TRIPOS>MOLECULE
*****
 36 39 0 0 0
SMALL
GASTEIGER

@<TRIPOS>ATOM
      1 N         139.2348  138.0873  160.2800 N.am    1  UNL1       -0.2999
      2 C         139.6374  139.1475  159.2983 C.2     1  UNL1        0.2701
      3 O         139.9763  140.5267  159.7808 O.2     1  UNL1       -0.2706
      4 H         139.0124  137.1820  159.9633 H       1  UNL1        0.1496
      5 N         139.0813  138.8576  163.8152 N.3     1  UNL1       -0.2711
      6 C         138.3922  139.3729  162.5865 C.3     1  UNL1        0.0933
      7 C         139.1713  138.4063  161.7443 C.3     1  UNL1        0.1035
      8 C         139.8602  137.8911  162.9731 C.3     1  UNL1        0.0933
      9 C         138.8905  139.8148  168.2081 C.3     1  UNL1        0.0752
     10 C         139.8737  140.5272  167.3273 C.3     1  UNL1        0.0188
     11 C         139.9372  140.2081  165.8630 C.3     1  UNL1        0.0174
     12 C         139.0177  139.1767  165.2795 C.3     1  UNL1        0.0577
     13 C         138.0345  138.4643  166.1603 C.3     1  UNL1        0.0174
     14 C         137.9709  138.7833  167.6245 C.3     1  UNL1        0.0188
     15 N         138.8268  140.1337  169.6723 N.3     1  UNL1       -0.1846
     16 H         138.0895  140.8286  169.7906 H       1  UNL1        0.1484
     17 C         141.2522  141.1959  171.0829 C.3     1  UNL1        0.1957
     18 S         140.0395  140.6648  170.3777 S.O2    1  UNL1        0.0426
     19 O         140.6778  139.3096  170.3006 O.2     1  UNL1       -0.1575
     20 O         139.4013  142.0201  170.4547 O.2     1  UNL1       -0.1575
     21 C         139.7010  138.8285  157.8340 C.3     1  UNL1        0.2850
     22 N         139.5702  137.4081  157.3695 N.pl3   1  UNL1       -0.2091
     23 H         139.4474  136.6848  158.0260 H       1  UNL1        0.2928
     24 C         139.6265  137.0899  155.9047 C.2     1  UNL1        0.3493
     25 N         138.7352  137.6629  154.8431 N.2     1  UNL1        0.0798
     26 N         139.1419  137.0699  153.5267 N.2     1  UNL1       -0.0381
     27 C         140.2847  136.1304  153.7747 C.2     1  UNL1        0.1169
     28 C         141.0912  135.2653  152.8522 C.3     1  UNL1        0.0759
     29 C         142.1973  134.4126  153.3995 C.2     1  UNL1       -0.0158
     30 C         142.4968  134.4250  154.8692 C.2     1  UNL1        0.0678
     31 C         141.6902  135.2901  155.7917 C.2     1  UNL1        0.0123
     32 C         140.5842  136.1428  155.2445 C.2     1  UNL1        0.1019
     33 C         143.6029  133.5722  155.4164 C.3     1  UNL1        0.4183
     34 F         144.7089  132.7195  155.9636 F       1  UNL1       -0.1659
     35 F         143.3081  132.5263  154.3824 F       1  UNL1       -0.1659
     36 F         143.8976  134.6181  156.4504 F       1  UNL1       -0.1659
@<TRIPOS>BOND
     1    17    18    1
     2    18    19    2
     3    18    20    2
     4    18    15    1
     5     9    15    1
     6     9    10    1
     7    10    11    1
     8    11    12    1
     9    12     5    1
    10     5     6    1
    11     6     7    1
    12     7     1    1
    13     1     2   am
    14     2     3    2
    15     2    21    1
    16    21    22    1
    17    22    24    1
    18    24    25    2
    19    25    26    1
    20    26    27    2
    21    27    28    1
    22    28    29    1
    23    29    30    2
    24    30    33    1
    25    33    34    1
    26    33    35    1
    27    33    36    1
    28    30    31    1
    29    31    32    2
    30     7     8    1
    31    12    13    1
    32    13    14    1
    33    14     9    1
    34     8     5    1
    35    32    24    1
    36    32    27    1
    37    15    16    1
    38     1     4    1
    39    22    23    1
@<TRIPOS>MOLECULE
*****
 36 39 0 0 0
SMALL
GASTEIGER

@<TRIPOS>ATOM
      1 N         143.5197  140.8181  159.6188 N.am    1  UNL1       -0.2999
      2 C         143.4531  139.6785  158.6457 C.2     1  UNL1        0.2701
      3 O         143.2744  138.2754  159.1449 O.2     1  UNL1       -0.2706
      4 H         143.6370  141.7390  159.2911 H       1  UNL1        0.1496
      5 N         143.2489  140.1816  163.1734 N.3     1  UNL1       -0.2711
      6 C         142.2827  140.2235  162.0268 C.3     1  UNL1        0.0933
      7 C         143.4076  140.5545  161.0911 C.3     1  UNL1        0.1035
      8 C         144.3736  140.5125  162.2378 C.3     1  UNL1        0.0933
      9 C         142.9125  139.3907  167.5906 C.3     1  UNL1        0.0752
     10 C         142.5631  140.7423  167.0420 C.3     1  UNL1        0.0188
     11 C         142.6753  141.0059  165.5696 C.3     1  UNL1        0.0174
     12 C         143.1367  139.9180  164.6458 C.3     1  UNL1        0.0577
     13 C         143.4861  138.5663  165.1945 C.3     1  UNL1        0.0174
     14 C         143.3740  138.3027  166.6668 C.3     1  UNL1        0.0188
     15 N         142.8004  139.1269  169.0629 N.3     1  UNL1       -0.1846
     16 H         142.2609  138.2677  169.1679 H       1  UNL1        0.1484
     17 C         141.5355  141.1688  170.8605 C.3     1  UNL1        0.1957
     18 S         142.1679  140.1479  169.9617 S.O2    1  UNL1        0.0426
     19 O         143.5167  140.7463  170.2310 O.2     1  UNL1       -0.1575
     20 O         140.8191  139.5494  169.6925 O.2     1  UNL1       -0.1575
     21 C         143.5652  139.9422  157.1733 C.3     1  UNL1        0.2850
     22 N         143.9909  138.8435  156.2449 N.pl3   1  UNL1       -0.2091
     23 H         144.9417  138.7355  156.0133 H       1  UNL1        0.2928
     24 C         142.9680  137.9095  155.6693 C.2     1  UNL1        0.3493
     25 N         141.8217  138.2956  154.7823 N.2     1  UNL1        0.0798
     26 N         141.0571  137.0501  154.4445 N.2     1  UNL1       -0.0381
     27 C         141.7308  135.8942  155.1229 C.2     1  UNL1        0.1169
     28 C         141.4215  134.4267  155.1491 C.3     1  UNL1        0.0759
     29 C         142.2931  133.4904  155.9323 C.2     1  UNL1       -0.0158
     30 C         143.4742  134.0216  156.6893 C.2     1  UNL1        0.0678
     31 C         143.7835  135.4891  156.6631 C.2     1  UNL1        0.0123
     32 C         142.9119  136.4254  155.8799 C.2     1  UNL1        0.1019
     33 C         144.3459  133.0852  157.4725 C.3     1  UNL1        0.4183
     34 F         145.2175  132.1488  158.2557 F       1  UNL1       -0.1659
     35 F         144.6023  132.2847  156.2302 F       1  UNL1       -0.1659
     36 F         144.0894  133.8856  158.7148 F       1  UNL1       -0.1659
@<TRIPOS>BOND
     1    17    18    1
     2    18    19    2
     3    18    20    2
     4    18    15    1
     5     9    15    1
     6     9    10    1
     7    10    11    1
     8    11    12    1
     9    12     5    1
    10     5     6    1
    11     6     7    1
    12     7     1    1
    13     1     2   am
    14     2     3    2
    15     2    21    1
    16    21    22    1
    17    22    24    1
    18    24    25    2
    19    25    26    1
    20    26    27    2
    21    27    28    1
    22    28    29    1
    23    29    30    2
    24    30    33    1
    25    33    34    1
    26    33    35    1
    27    33    36    1
    28    30    31    1
    29    31    32    2
    30     7     8    1
    31    12    13    1
    32    13    14    1
    33    14     9    1
    34     8     5    1
    35    32    24    1
    36    32    27    1
    37    15    16    1
    38     1     4    1
    39    22    23    1
@<TRIPOS>MOLECULE
*****
 36 39 0 0 0
SMALL
GASTEIGER

@<TRIPOS>ATOM
      1 N         142.6971  142.4609  162.4485 N.am    1  UNL1       -0.2999
      2 C         142.6080  143.9460  162.2573 C.2     1  UNL1        0.2701
      3 O         142.6500  144.5282  160.8756 O.2     1  UNL1       -0.2706
      4 H         142.6696  142.0788  163.3554 H       1  UNL1        0.1496
      5 N         143.0136  140.2812  159.5740 N.3     1  UNL1       -0.2711
      6 C         141.9334  141.1680  160.1189 C.3     1  UNL1        0.0933
      7 C         142.8283  141.5581  161.2579 C.3     1  UNL1        0.1035
      8 C         143.9084  140.6713  160.7130 C.3     1  UNL1        0.0933
      9 C         143.4070  137.5726  156.0021 C.3     1  UNL1        0.0752
     10 C         142.8306  137.0459  157.2828 C.3     1  UNL1        0.0188
     11 C         142.6995  137.9488  158.4735 C.3     1  UNL1        0.0174
     12 C         143.1447  139.3783  158.3834 C.3     1  UNL1        0.0577
     13 C         143.7211  139.9050  157.1026 C.3     1  UNL1        0.0174
     14 C         143.8522  139.0022  155.9120 C.3     1  UNL1        0.0188
     15 N         143.5382  136.6699  154.8114 N.3     1  UNL1       -0.1846
     16 H         143.8333  137.2547  154.0296 H       1  UNL1        0.1484
     17 C         141.1741  135.0847  153.8632 C.3     1  UNL1        0.1957
     18 S         142.3561  135.8773  154.3373 S.O2    1  UNL1        0.0426
     19 O         143.0607  134.6056  154.7065 O.2     1  UNL1       -0.1575
     20 O         141.6515  137.1490  153.9680 O.2     1  UNL1       -0.1575
     21 C         142.4769  144.8489  163.4480 C.3     1  UNL1        0.2850
     22 N         141.1500  145.4652  163.7794 N.pl3   1  UNL1       -0.2091
     23 H         141.1121  146.3155  164.2741 H       1  UNL1        0.2928
     24 C         139.8811  144.7859  163.3570 C.2     1  UNL1        0.3493
     25 N         138.9166  145.2844  162.3220 N.2     1  UNL1        0.0798
     26 N         137.7933  144.2954  162.2208 N.2     1  UNL1       -0.0381
     27 C         138.0636  143.1858  163.1933 C.2     1  UNL1        0.1169
     28 C         137.3015  141.9386  163.5301 C.3     1  UNL1        0.0759
     29 C         137.8297  140.9945  164.5692 C.2     1  UNL1       -0.0158
     30 C         139.1200  141.2976  165.2714 C.2     1  UNL1        0.0678
     31 C         139.8821  142.5449  164.9346 C.2     1  UNL1        0.0123
     32 C         139.3539  143.4890  163.8955 C.2     1  UNL1        0.1019
     33 C         139.6482  140.3535  166.3105 C.3     1  UNL1        0.4183
     34 F         140.1764  139.4094  167.3495 F       1  UNL1       -0.1659
     35 F         140.9848  141.0313  166.2470 F       1  UNL1       -0.1659
     36 F         138.3116  139.6757  166.3740 F       1  UNL1       -0.1659
@<TRIPOS>BOND
     1    17    18    1
     2    18    19    2
     3    18    20    2
     4    18    15    1
     5     9    15    1
     6     9    10    1
     7    10    11    1
     8    11    12    1
     9    12     5    1
    10     5     6    1
    11     6     7    1
    12     7     1    1
    13     1     2   am
    14     2     3    2
    15     2    21    1
    16    21    22    1
    17    22    24    1
    18    24    25    2
    19    25    26    1
    20    26    27    2
    21    27    28    1
    22    28    29    1
    23    29    30    2
    24    30    33    1
    25    33    34    1
    26    33    35    1
    27    33    36    1
    28    30    31    1
    29    31    32    2
    30     7     8    1
    31    12    13    1
    32    13    14    1
    33    14     9    1
    34     8     5    1
    35    32    24    1
    36    32    27    1
    37    15    16    1
    38     1     4    1
    39    22    23    1
@<TRIPOS>MOLECULE
*****
 36 39 0 0 0
SMALL
GASTEIGER

@<TRIPOS>ATOM
      1 N         139.9144  142.8425  166.4894 N.am    1  UNL1       -0.2999
      2 C         140.3553  143.4995  165.2151 C.2     1  UNL1        0.2701
      3 O         141.6122  143.0464  164.5334 O.2     1  UNL1       -0.2706
      4 H         139.0895  143.1399  166.9368 H       1  UNL1        0.1496
      5 N         141.8846  140.1618  167.9200 N.3     1  UNL1       -0.2711
      6 C         140.4931  140.2798  167.3725 C.3     1  UNL1        0.0933
      7 C         140.7305  141.7322  167.0819 C.3     1  UNL1        0.1035
      8 C         142.1220  141.6141  167.6294 C.3     1  UNL1        0.0933
      9 C         144.3330  136.8309  169.6977 C.3     1  UNL1        0.0752
     10 C         143.4355  137.6525  170.5748 C.3     1  UNL1        0.0188
     11 C         142.6194  138.7628  169.9822 C.3     1  UNL1        0.0174
     12 C         142.7008  139.0515  168.5125 C.3     1  UNL1        0.0577
     13 C         143.5983  138.2299  167.6354 C.3     1  UNL1        0.0174
     14 C         144.4144  137.1196  168.2279 C.3     1  UNL1        0.0188
     15 N         145.1492  135.7206  170.2901 N.3     1  UNL1       -0.1846
     16 H         144.5353  134.9090  170.3602 H       1  UNL1        0.1484
     17 C         146.4311  136.0716  172.9797 C.3     1  UNL1        0.1957
     18 S         145.7902  135.8961  171.6349 S.O2    1  UNL1        0.0426
     19 O         144.8059  134.9330  172.2297 O.2     1  UNL1       -0.1575
     20 O         146.7744  136.8592  171.0402 O.2     1  UNL1       -0.1575
     21 C         139.5392  144.6099  164.6225 C.3     1  UNL1        0.2850
     22 N         138.2474  144.3014  163.9251 N.pl3   1  UNL1       -0.2091
     23 H         137.4090  144.7125  164.2373 H       1  UNL1        0.2928
     24 C         138.2329  143.3666  162.7521 C.2     1  UNL1        0.3493
     25 N         138.1817  143.7658  161.3071 N.2     1  UNL1        0.0798
     26 N         138.1843  142.5143  160.4802 N.2     1  UNL1       -0.0381
     27 C         138.2371  141.3417  161.4141 C.2     1  UNL1        0.1169
     28 C         138.2617  139.8623  161.1674 C.3     1  UNL1        0.0759
     29 C         138.3164  138.9098  162.3247 C.2     1  UNL1       -0.0158
     30 C         138.3464  139.4365  163.7289 C.2     1  UNL1        0.0678
     31 C         138.3218  140.9158  163.9756 C.2     1  UNL1        0.0123
     32 C         138.2672  141.8684  162.8183 C.2     1  UNL1        0.1019
     33 C         138.4011  138.4838  164.8863 C.3     1  UNL1        0.4183
     34 F         138.4558  137.5313  166.0437 F       1  UNL1       -0.1659
     35 F         139.0891  137.4708  164.0200 F       1  UNL1       -0.1659
     36 F         137.7131  139.4969  165.7525 F       1  UNL1       -0.1659
@<TRIPOS>BOND
     1    17    18    1
     2    18    19    2
     3    18    20    2
     4    18    15    1
     5     9    15    1
     6     9    10    1
     7    10    11    1
     8    11    12    1
     9    12     5    1
    10     5     6    1
    11     6     7    1
    12     7     1    1
    13     1     2   am
    14     2     3    2
    15     2    21    1
    16    21    22    1
    17    22    24    1
    18    24    25    2
    19    25    26    1
    20    26    27    2
    21    27    28    1
    22    28    29    1
    23    29    30    2
    24    30    33    1
    25    33    34    1
    26    33    35    1
    27    33    36    1
    28    30    31    1
    29    31    32    2
    30     7     8    1
    31    12    13    1
    32    13    14    1
    33    14     9    1
    34     8     5    1
    35    32    24    1
    36    32    27    1
    37    15    16    1
    38     1     4    1
    39    22    23    1
@<TRIPOS>MOLECULE
*****
 36 39 0 0 0
SMALL
GASTEIGER

@<TRIPOS>ATOM
      1 N         141.7861  143.4303  159.5757 N.am    1  UNL1       -0.2999
      2 C         140.5172  144.1916  159.8211 C.2     1  UNL1        0.2701
      3 O         139.1956  143.5858  159.4518 O.2     1  UNL1       -0.2706
      4 H         142.6534  143.8280  159.8181 H       1  UNL1        0.1496
      5 N         141.6588  140.1295  158.0917 N.3     1  UNL1       -0.2711
      6 C         140.9659  140.8043  159.2382 C.3     1  UNL1        0.0933
      7 C         141.7334  142.0631  158.9610 C.3     1  UNL1        0.1035
      8 C         142.4262  141.3881  157.8146 C.3     1  UNL1        0.0933
      9 C         141.5007  136.0277  156.2475 C.3     1  UNL1        0.0752
     10 C         142.5549  136.3530  157.2638 C.3     1  UNL1        0.0188
     11 C         142.6076  137.7202  157.8786 C.3     1  UNL1        0.0174
     12 C         141.6061  138.7622  157.4770 C.3     1  UNL1        0.0577
     13 C         140.5519  138.4369  156.4607 C.3     1  UNL1        0.0174
     14 C         140.4992  137.0698  155.8460 C.3     1  UNL1        0.0188
     15 N         141.4479  134.6606  155.6328 N.3     1  UNL1       -0.1846
     16 H         140.7554  134.1277  156.1589 H       1  UNL1        0.1484
     17 C         143.9265  132.9749  155.5089 C.3     1  UNL1        0.1957
     18 S         142.6873  133.8177  155.5708 S.O2    1  UNL1        0.0426
     19 O         142.1673  132.9707  156.6942 O.2     1  UNL1       -0.1575
     20 O         143.2073  134.6648  154.4474 O.2     1  UNL1       -0.1575
     21 C         140.5699  145.5589  160.4358 C.3     1  UNL1        0.2850
     22 N         139.5397  145.9667  161.4471 N.pl3   1  UNL1       -0.2091
     23 H         139.1409  146.8660  161.4083 H       1  UNL1        0.2928
     24 C         139.1172  145.0044  162.5174 C.2     1  UNL1        0.3493
     25 N         137.7091  144.5861  162.8211 N.2     1  UNL1        0.0798
     26 N         137.7504  143.6146  163.9633 N.2     1  UNL1       -0.0381
     27 C         139.1839  143.4326  164.3655 C.2     1  UNL1        0.1169
     28 C         139.8292  142.5957  165.4299 C.3     1  UNL1        0.0759
     29 C         141.3193  142.6178  165.6008 C.2     1  UNL1       -0.0158
     30 C         142.1640  143.4767  164.7072 C.2     1  UNL1        0.0678
     31 C         141.5188  144.3136  163.6427 C.2     1  UNL1        0.0123
     32 C         140.0287  144.2916  163.4718 C.2     1  UNL1        0.1019
     33 C         143.6542  143.4987  164.8781 C.3     1  UNL1        0.4183
     34 F         145.1442  143.5207  165.0490 F       1  UNL1       -0.1659
     35 F         143.6646  144.9722  164.5976 F       1  UNL1       -0.1659
     36 F         143.6437  142.0253  165.1586 F       1  UNL1       -0.1659
@<TRIPOS>BOND
     1    17    18    1
     2    18    19    2
     3    18    20    2
     4    18    15    1
     5     9    15    1
     6     9    10    1
     7    10    11    1
     8    11    12    1
     9    12     5    1
    10     5     6    1
    11     6     7    1
    12     7     1    1
    13     1     2   am
    14     2     3    2
    15     2    21    1
    16    21    22    1
    17    22    24    1
    18    24    25    2
    19    25    26    1
    20    26    27    2
    21    27    28    1
    22    28    29    1
    23    29    30    2
    24    30    33    1
    25    33    34    1
    26    33    35    1
    27    33    36    1
    28    30    31    1
    29    31    32    2
    30     7     8    1
    31    12    13    1
    32    13    14    1
    33    14     9    1
    34     8     5    1
    35    32    24    1
    36    32    27    1
    37    15    16    1
    38     1     4    1
    39    22    23    1
@<TRIPOS>MOLECULE
*****
 36 39 0 0 0
SMALL
GASTEIGER

@<TRIPOS>ATOM
      1 N         142.1004  141.9194  160.1149 N.am    1  UNL1       -0.2999
      2 C         143.1269  142.9879  159.8816 C.2     1  UNL1        0.2701
      3 O         143.7070  143.7374  161.0442 O.2     1  UNL1       -0.2706
      4 H         141.7197  141.4275  159.3518 H       1  UNL1        0.1496
      5 N         141.0229  141.1490  163.4853 N.3     1  UNL1       -0.2711
      6 C         141.9618  140.5164  162.5013 C.3     1  UNL1        0.0933
      7 C         141.6541  141.6003  161.5110 C.3     1  UNL1        0.1035
      8 C         140.7152  142.2328  162.4951 C.3     1  UNL1        0.0933
      9 C         139.6839  140.1917  167.6735 C.3     1  UNL1        0.0752
     10 C         138.9531  139.6083  166.5007 C.3     1  UNL1        0.0188
     11 C         139.3994  139.9274  165.1046 C.3     1  UNL1        0.0174
     12 C         140.5766  140.8299  164.8814 C.3     1  UNL1        0.0577
     13 C         141.3074  141.4133  166.0542 C.3     1  UNL1        0.0174
     14 C         140.8611  141.0942  167.4502 C.3     1  UNL1        0.0188
     15 N         139.2377  139.8727  169.0696 N.3     1  UNL1       -0.1846
     16 H         138.2811  140.2154  169.1585 H       1  UNL1        0.1484
     17 C         140.7654  140.9505  171.4158 C.3     1  UNL1        0.1957
     18 S         140.0016  140.4116  170.2427 S.O2    1  UNL1        0.0426
     19 O         139.0478  141.5657  170.3335 O.2     1  UNL1       -0.1575
     20 O         140.9553  139.2574  170.1519 O.2     1  UNL1       -0.1575
     21 C         143.5733  143.3070  158.4856 C.3     1  UNL1        0.2850
     22 N         142.7637  144.2397  157.6340 N.pl3   1  UNL1       -0.2091
     23 H         143.0768  145.1597  157.4769 H       1  UNL1        0.2928
     24 C         141.4772  143.7704  157.0219 C.2     1  UNL1        0.3493
     25 N         141.0262  142.3448  156.9022 N.2     1  UNL1        0.0798
     26 N         139.6861  142.3377  156.2283 N.2     1  UNL1       -0.0381
     27 C         139.3089  143.7589  155.9316 C.2     1  UNL1        0.1169
     28 C         138.1004  144.3611  155.2782 C.3     1  UNL1        0.0759
     29 C         137.9990  145.8487  155.1153 C.2     1  UNL1       -0.0158
     30 C         139.1060  146.7342  155.6057 C.2     1  UNL1        0.0678
     31 C         140.3144  146.1320  156.2591 C.2     1  UNL1        0.0123
     32 C         140.4159  144.6443  156.4221 C.2     1  UNL1        0.1019
     33 C         139.0045  148.2219  155.4428 C.3     1  UNL1        0.4183
     34 F         138.9030  149.7095  155.2798 F       1  UNL1       -0.1659
     35 F         138.5763  148.3496  156.8746 F       1  UNL1       -0.1659
     36 F         139.4327  148.0942  154.0109 F       1  UNL1       -0.1659
@<TRIPOS>BOND
     1    17    18    1
     2    18    19    2
     3    18    20    2
     4    18    15    1
     5     9    15    1
     6     9    10    1
     7    10    11    1
     8    11    12    1
     9    12     5    1
    10     5     6    1
    11     6     7    1
    12     7     1    1
    13     1     2   am
    14     2     3    2
    15     2    21    1
    16    21    22    1
    17    22    24    1
    18    24    25    2
    19    25    26    1
    20    26    27    2
    21    27    28    1
    22    28    29    1
    23    29    30    2
    24    30    33    1
    25    33    34    1
    26    33    35    1
    27    33    36    1
    28    30    31    1
    29    31    32    2
    30     7     8    1
    31    12    13    1
    32    13    14    1
    33    14     9    1
    34     8     5    1
    35    32    24    1
    36    32    27    1
    37    15    16    1
    38     1     4    1
    39    22    23    1
