@<TRIPOS>MOLECULE
*****
 35 38 0 0 0
SMALL
GASTEIGER

@<TRIPOS>ATOM
      1 N         139.1321  141.1366  165.7681 N.3     1  UNL1       -0.2653
      2 C         140.1056  142.2378  166.0672 C.3     1  UNL1        0.1036
      3 C         140.1926  143.4289  165.1597 C.3     1  UNL1        0.1470
      4 C         140.2798  144.6201  164.2521 C.3     1  UNL1        0.1035
      5 N         139.3933  144.7099  163.0454 N.3     1  UNL1       -0.2685
      6 C         138.4198  143.6086  162.7462 C.3     1  UNL1        0.1035
      7 C         138.3327  142.4175  163.6538 C.3     1  UNL1        0.1470
      8 C         138.2457  141.2264  164.5613 C.3     1  UNL1        0.1036
      9 O         139.3062  143.5188  163.9530 O.3     1  UNL1       -0.3530
     10 C         139.0450  139.9454  166.6756 C.3     1  UNL1        0.1202
     11 C         138.0121  138.8866  166.4265 C.3     1  UNL1        0.2226
     12 O         138.3924  137.6195  165.7195 O.3     1  UNL1       -0.4740
     13 C         141.1525  137.7654  162.1684 C.ar    1  UNL1        0.0686
     14 C         141.6982  137.4525  163.5302 C.ar    1  UNL1        0.0134
     15 C         140.7782  137.4039  164.7139 C.ar    1  UNL1        0.0376
     16 C         139.3124  137.6681  164.5359 C.ar    1  UNL1        0.1387
     17 C         138.7667  137.9809  163.1742 C.ar    1  UNL1        0.0376
     18 C         139.6867  138.0296  161.9904 C.ar    1  UNL1        0.0134
     19 N         142.9925  137.8627  159.8011 N.1     1  UNL1       -0.1908
     20 C         142.0725  137.8140  160.9847 C.1     1  UNL1        0.1004
     21 C         139.4804  145.9010  162.1378 C.3     1  UNL1        0.0737
     22 C         140.0936  145.7629  160.7758 C.3     1  UNL1        0.0362
     23 C         141.2298  144.8082  160.5581 C.3     1  UNL1        0.0929
     24 N         142.4983  144.9604  161.3441 N.3     1  UNL1       -0.1793
     25 H         142.3231  145.6753  162.0502 H       1  UNL1        0.1488
     26 S         143.0834  143.7790  162.0598 S.O2    1  UNL1        0.0602
     27 O         144.2340  144.6259  162.5169 O.2     1  UNL1       -0.1530
     28 O         141.9329  142.9321  161.6027 O.2     1  UNL1       -0.1530
     29 C         143.6686  142.5978  162.7755 C.ar    1  UNL1        0.1221
     30 C         142.7686  141.5232  163.3094 C.ar    1  UNL1        0.0222
     31 C         143.3538  140.3419  164.0252 C.ar    1  UNL1        0.0310
     32 C         144.8389  140.2353  164.2069 C.ar    1  UNL1        0.1402
     33 F         145.4241  139.0540  164.9225 F       1  UNL1       -0.2042
     34 C         145.7389  141.3100  163.6729 C.ar    1  UNL1        0.0310
     35 C         145.1537  142.4912  162.9572 C.ar    1  UNL1        0.0222
@<TRIPOS>BOND
     1    19    20    3
     2    20    13    1
     3    13    14   ar
     4    14    15   ar
     5    15    16   ar
     6    16    12    1
     7    12    11    1
     8    11    10    1
     9    10     1    1
    10     1     2    1
    11     2     3    1
    12     3     4    1
    13     4     5    1
    14     5    21    1
    15    21    22    1
    16    22    23    1
    17    23    24    1
    18    24    26    1
    19    26    27    2
    20    26    28    2
    21    26    29    1
    22    29    30   ar
    23    30    31   ar
    24    31    32   ar
    25    32    33    1
    26    32    34   ar
    27    34    35   ar
    28     5     6    1
    29     6     7    1
    30     7     8    1
    31     7     9    1
    32    16    17   ar
    33    17    18   ar
    34    18    13   ar
    35     8     1    1
    36     9     3    1
    37    35    29   ar
    38    24    25    1
@<TRIPOS>MOLECULE
*****
 35 38 0 0 0
SMALL
GASTEIGER

@<TRIPOS>ATOM
      1 N         142.2472  142.0624  166.9177 N.3     1  UNL1       -0.2653
      2 C         143.1415  142.5040  165.7974 C.3     1  UNL1        0.1036
      3 C         142.5987  143.3746  164.7031 C.3     1  UNL1        0.1470
      4 C         142.0559  144.2452  163.6088 C.3     1  UNL1        0.1035
      5 N         140.6188  144.6742  163.6349 N.3     1  UNL1       -0.2685
      6 C         139.7245  144.2326  164.7554 C.3     1  UNL1        0.1035
      7 C         140.2673  143.3621  165.8496 C.3     1  UNL1        0.1470
      8 C         140.8101  142.4915  166.9438 C.3     1  UNL1        0.1036
      9 O         141.1616  143.8036  164.7293 O.3     1  UNL1       -0.3530
     10 C         142.7901  141.1918  168.0120 C.3     1  UNL1        0.1202
     11 C         142.4428  139.7331  168.0518 C.3     1  UNL1        0.2226
     12 O         143.3162  138.7348  167.3513 O.3     1  UNL1       -0.4740
     13 C         143.6109  138.7627  162.8611 C.ar    1  UNL1        0.0686
     14 C         144.7445  139.2892  163.6904 C.ar    1  UNL1        0.0134
     15 C         144.6463  139.2799  165.1871 C.ar    1  UNL1        0.0376
     16 C         143.4145  138.7441  165.8546 C.ar    1  UNL1        0.1387
     17 C         142.2808  138.2177  165.0254 C.ar    1  UNL1        0.0376
     18 C         142.3790  138.2269  163.5285 C.ar    1  UNL1        0.0134
     19 N         143.8074  138.7812  159.8676 N.1     1  UNL1       -0.1908
     20 C         143.7091  138.7719  161.3644 C.1     1  UNL1        0.1004
     21 C         140.0760  145.5448  162.5407 C.3     1  UNL1        0.0737
     22 C         139.9867  145.0191  161.1386 C.3     1  UNL1        0.0362
     23 C         139.4946  143.6240  160.8906 C.3     1  UNL1        0.0929
     24 N         138.2850  143.1152  161.6172 N.3     1  UNL1       -0.1793
     25 H         137.5588  142.9715  160.9155 H       1  UNL1        0.1488
     26 S         138.3687  141.8503  162.4191 S.O2    1  UNL1        0.0602
     27 O         139.8366  141.7603  162.1239 O.2     1  UNL1       -0.1530
     28 O         136.9008  141.9402  162.7143 O.2     1  UNL1       -0.1530
     29 C         138.4525  140.5854  163.2209 C.ar    1  UNL1        0.1221
     30 C         138.7198  139.2787  162.5346 C.ar    1  UNL1        0.0222
     31 C         138.8036  138.0137  163.3365 C.ar    1  UNL1        0.0310
     32 C         138.6200  138.0555  164.8246 C.ar    1  UNL1        0.1402
     33 F         138.7038  136.7906  165.6264 F       1  UNL1       -0.2042
     34 C         138.3527  139.3623  165.5109 C.ar    1  UNL1        0.0310
     35 C         138.2689  140.6272  164.7091 C.ar    1  UNL1        0.0222
@<TRIPOS>BOND
     1    19    20    3
     2    20    13    1
     3    13    14   ar
     4    14    15   ar
     5    15    16   ar
     6    16    12    1
     7    12    11    1
     8    11    10    1
     9    10     1    1
    10     1     2    1
    11     2     3    1
    12     3     4    1
    13     4     5    1
    14     5    21    1
    15    21    22    1
    16    22    23    1
    17    23    24    1
    18    24    26    1
    19    26    27    2
    20    26    28    2
    21    26    29    1
    22    29    30   ar
    23    30    31   ar
    24    31    32   ar
    25    32    33    1
    26    32    34   ar
    27    34    35   ar
    28     5     6    1
    29     6     7    1
    30     7     8    1
    31     7     9    1
    32    16    17   ar
    33    17    18   ar
    34    18    13   ar
    35     8     1    1
    36     9     3    1
    37    35    29   ar
    38    24    25    1
@<TRIPOS>MOLECULE
*****
 35 38 0 0 0
SMALL
GASTEIGER

@<TRIPOS>ATOM
      1 N         143.1418  140.2815  164.6572 N.3     1  UNL1       -0.2653
      2 C         143.1319  141.5331  165.4837 C.3     1  UNL1        0.1036
      3 C         142.5438  142.7953  164.9262 C.3     1  UNL1        0.1470
      4 C         141.9557  144.0577  164.3687 C.3     1  UNL1        0.1035
      5 N         141.3776  144.0683  162.9846 N.3     1  UNL1       -0.2685
      6 C         141.3876  142.8165  162.1581 C.3     1  UNL1        0.1035
      7 C         141.9756  141.5543  162.7156 C.3     1  UNL1        0.1470
      8 C         142.5637  140.2921  163.2731 C.3     1  UNL1        0.1036
      9 O         141.9657  142.8059  163.5421 O.3     1  UNL1       -0.3530
     10 C         143.7299  139.0191  165.2147 C.3     1  UNL1        0.1202
     11 C         143.0383  138.3005  166.3351 C.3     1  UNL1        0.2226
     12 O         143.3326  138.6710  167.7585 O.3     1  UNL1       -0.4740
     13 C         140.7133  141.6387  169.8989 C.ar    1  UNL1        0.0686
     14 C         140.1920  140.9081  168.6970 C.ar    1  UNL1        0.0134
     15 C         141.0651  139.9189  167.9836 C.ar    1  UNL1        0.0376
     16 C         142.4595  139.6602  168.4720 C.ar    1  UNL1        0.1387
     17 C         142.9809  140.3908  169.6738 C.ar    1  UNL1        0.0376
     18 C         142.1078  141.3801  170.3873 C.ar    1  UNL1        0.0134
     19 N         138.9671  143.6172  171.3258 N.1     1  UNL1       -0.1908
     20 C         139.8402  142.6280  170.6124 C.1     1  UNL1        0.1004
     21 C         140.7895  145.3305  162.4271 C.3     1  UNL1        0.0737
     22 C         139.3664  145.3495  161.9534 C.3     1  UNL1        0.0362
     23 C         138.2827  144.7662  162.8108 C.3     1  UNL1        0.0929
     24 N         137.5299  143.5545  162.3470 N.3     1  UNL1       -0.1793
     25 H         137.6973  143.4698  161.3444 H       1  UNL1        0.1488
     26 S         137.8237  142.2128  162.9500 S.O2    1  UNL1        0.0602
     27 O         137.5077  142.7557  164.3121 O.2     1  UNL1       -0.1530
     28 O         138.1397  141.6699  161.5879 O.2     1  UNL1       -0.1530
     29 C         138.1175  140.8711  163.5529 C.ar    1  UNL1        0.1221
     30 C         138.4458  139.7063  162.6667 C.ar    1  UNL1        0.0222
     31 C         138.7396  138.3646  163.2697 C.ar    1  UNL1        0.0310
     32 C         138.7051  138.1877  164.7588 C.ar    1  UNL1        0.1402
     33 F         138.9989  136.8461  165.3618 F       1  UNL1       -0.2042
     34 C         138.3768  139.3526  165.6450 C.ar    1  UNL1        0.0310
     35 C         138.0830  140.6943  165.0421 C.ar    1  UNL1        0.0222
@<TRIPOS>BOND
     1    19    20    3
     2    20    13    1
     3    13    14   ar
     4    14    15   ar
     5    15    16   ar
     6    16    12    1
     7    12    11    1
     8    11    10    1
     9    10     1    1
    10     1     2    1
    11     2     3    1
    12     3     4    1
    13     4     5    1
    14     5    21    1
    15    21    22    1
    16    22    23    1
    17    23    24    1
    18    24    26    1
    19    26    27    2
    20    26    28    2
    21    26    29    1
    22    29    30   ar
    23    30    31   ar
    24    31    32   ar
    25    32    33    1
    26    32    34   ar
    27    34    35   ar
    28     5     6    1
    29     6     7    1
    30     7     8    1
    31     7     9    1
    32    16    17   ar
    33    17    18   ar
    34    18    13   ar
    35     8     1    1
    36     9     3    1
    37    35    29   ar
    38    24    25    1
@<TRIPOS>MOLECULE
*****
 35 38 0 0 0
SMALL
GASTEIGER

@<TRIPOS>ATOM
      1 N         141.8689  140.3659  167.3912 N.3     1  UNL1       -0.2653
      2 C         142.4132  141.7635  167.3676 C.3     1  UNL1        0.1036
      3 C         143.3014  142.2034  166.2417 C.3     1  UNL1        0.1470
      4 C         144.1896  142.6434  165.1158 C.3     1  UNL1        0.1035
      5 N         144.5335  141.6859  164.0136 N.3     1  UNL1       -0.2685
      6 C         143.9891  140.2883  164.0373 C.3     1  UNL1        0.1035
      7 C         143.1009  139.8483  165.1631 C.3     1  UNL1        0.1470
      8 C         142.2127  139.4084  166.2890 C.3     1  UNL1        0.1036
      9 O         143.6452  141.2458  165.1395 O.3     1  UNL1       -0.3530
     10 C         140.9807  139.9259  168.5171 C.3     1  UNL1        0.1202
     11 C         139.4992  140.1454  168.4333 C.3     1  UNL1        0.2226
     12 O         138.6389  139.1763  167.6777 O.3     1  UNL1       -0.4740
     13 C         138.5046  139.3183  163.1819 C.ar    1  UNL1        0.0686
     14 C         138.7843  138.0222  163.8834 C.ar    1  UNL1        0.0134
     15 C         138.8290  137.9749  165.3820 C.ar    1  UNL1        0.0376
     16 C         138.5942  139.2236  166.1791 C.ar    1  UNL1        0.1387
     17 C         138.3145  140.5197  165.4777 C.ar    1  UNL1        0.0376
     18 C         138.2698  140.5670  163.9791 C.ar    1  UNL1        0.0134
     19 N         138.4151  139.4129  160.1848 N.1     1  UNL1       -0.1908
     20 C         138.4599  139.3656  161.6834 C.1     1  UNL1        0.1004
     21 C         145.4216  142.1258  162.8878 C.3     1  UNL1        0.0737
     22 C         144.9616  141.9777  161.4677 C.3     1  UNL1        0.0362
     23 C         143.8105  142.7963  160.9630 C.3     1  UNL1        0.0929
     24 N         143.4101  144.0506  161.6816 N.3     1  UNL1       -0.1793
     25 H         143.4039  144.7982  160.9878 H       1  UNL1        0.1488
     26 S         142.0952  144.1159  162.4005 S.O2    1  UNL1        0.0602
     27 O         142.6413  145.1828  163.3024 O.2     1  UNL1       -0.1530
     28 O         141.5490  143.0491  161.4986 O.2     1  UNL1       -0.1530
     29 C         140.7803  144.1813  163.1194 C.ar    1  UNL1        0.1221
     30 C         139.5080  144.3456  162.3421 C.ar    1  UNL1        0.0222
     31 C         138.1931  144.4110  163.0610 C.ar    1  UNL1        0.0310
     32 C         138.1505  144.3121  164.5571 C.ar    1  UNL1        0.1402
     33 F         136.8357  144.3775  165.2760 F       1  UNL1       -0.2042
     34 C         139.4229  144.1479  165.3344 C.ar    1  UNL1        0.0310
     35 C         140.7378  144.0825  164.6155 C.ar    1  UNL1        0.0222
@<TRIPOS>BOND
     1    19    20    3
     2    20    13    1
     3    13    14   ar
     4    14    15   ar
     5    15    16   ar
     6    16    12    1
     7    12    11    1
     8    11    10    1
     9    10     1    1
    10     1     2    1
    11     2     3    1
    12     3     4    1
    13     4     5    1
    14     5    21    1
    15    21    22    1
    16    22    23    1
    17    23    24    1
    18    24    26    1
    19    26    27    2
    20    26    28    2
    21    26    29    1
    22    29    30   ar
    23    30    31   ar
    24    31    32   ar
    25    32    33    1
    26    32    34   ar
    27    34    35   ar
    28     5     6    1
    29     6     7    1
    30     7     8    1
    31     7     9    1
    32    16    17   ar
    33    17    18   ar
    34    18    13   ar
    35     8     1    1
    36     9     3    1
    37    35    29   ar
    38    24    25    1
@<TRIPOS>MOLECULE
*****
 35 38 0 0 0
SMALL
GASTEIGER

@<TRIPOS>ATOM
      1 N         139.5587  139.8977  164.9954 N.3     1  UNL1       -0.2653
      2 C         138.4432  140.8850  164.8197 C.3     1  UNL1        0.1036
      3 C         138.3018  141.6348  163.5283 C.3     1  UNL1        0.1470
      4 C         138.1604  142.3846  162.2368 C.3     1  UNL1        0.1035
      5 N         139.1344  142.1471  161.1211 N.3     1  UNL1       -0.2685
      6 C         140.2500  141.1597  161.2969 C.3     1  UNL1        0.1035
      7 C         140.3914  140.4100  162.5883 C.3     1  UNL1        0.1470
      8 C         140.5328  139.6602  163.8797 C.3     1  UNL1        0.1036
      9 O         139.2759  141.3973  162.4126 O.3     1  UNL1       -0.3530
     10 C         139.7002  139.1479  166.2869 C.3     1  UNL1        0.1202
     11 C         138.5983  139.1910  167.3037 C.3     1  UNL1        0.2226
     12 O         138.8845  139.6567  168.7006 O.3     1  UNL1       -0.4740
     13 C         142.7151  141.8385  169.6043 C.ar    1  UNL1        0.0686
     14 C         141.5233  142.5944  169.0960 C.ar    1  UNL1        0.0134
     15 C         140.2465  141.8672  168.7948 C.ar    1  UNL1        0.0376
     16 C         140.1614  140.3840  169.0018 C.ar    1  UNL1        0.1387
     17 C         141.3530  139.6280  169.5101 C.ar    1  UNL1        0.0376
     18 C         142.6299  140.3553  169.8114 C.ar    1  UNL1        0.0134
     19 N         145.2687  143.2930  170.2068 N.1     1  UNL1       -0.1908
     20 C         143.9919  142.5657  169.9056 C.1     1  UNL1        0.1004
     21 C         138.9930  142.8969  159.8297 C.3     1  UNL1        0.0737
     22 C         140.1395  143.7094  159.3047 C.3     1  UNL1        0.0362
     23 C         140.3449  145.1152  159.7859 C.3     1  UNL1        0.0929
     24 N         141.5235  145.4465  160.6525 N.3     1  UNL1       -0.1793
     25 H         141.3685  146.3880  161.0130 H       1  UNL1        0.1488
     26 S         141.8547  144.5804  161.8315 S.O2    1  UNL1        0.0602
     27 O         143.0467  144.0394  161.0992 O.2     1  UNL1       -0.1530
     28 O         140.6627  145.1214  162.5639 O.2     1  UNL1       -0.1530
     29 C         142.1859  143.7143  163.0105 C.ar    1  UNL1        0.1221
     30 C         141.3000  143.7243  164.2209 C.ar    1  UNL1        0.0222
     31 C         141.6312  142.8582  165.4000 C.ar    1  UNL1        0.0310
     32 C         142.8483  141.9820  165.3686 C.ar    1  UNL1        0.1402
     33 F         143.1795  141.1158  166.5476 F       1  UNL1       -0.2042
     34 C         143.7342  141.9719  164.1582 C.ar    1  UNL1        0.0310
     35 C         143.4030  142.8380  162.9792 C.ar    1  UNL1        0.0222
@<TRIPOS>BOND
     1    19    20    3
     2    20    13    1
     3    13    14   ar
     4    14    15   ar
     5    15    16   ar
     6    16    12    1
     7    12    11    1
     8    11    10    1
     9    10     1    1
    10     1     2    1
    11     2     3    1
    12     3     4    1
    13     4     5    1
    14     5    21    1
    15    21    22    1
    16    22    23    1
    17    23    24    1
    18    24    26    1
    19    26    27    2
    20    26    28    2
    21    26    29    1
    22    29    30   ar
    23    30    31   ar
    24    31    32   ar
    25    32    33    1
    26    32    34   ar
    27    34    35   ar
    28     5     6    1
    29     6     7    1
    30     7     8    1
    31     7     9    1
    32    16    17   ar
    33    17    18   ar
    34    18    13   ar
    35     8     1    1
    36     9     3    1
    37    35    29   ar
    38    24    25    1
@<TRIPOS>MOLECULE
*****
 35 38 0 0 0
SMALL
GASTEIGER

@<TRIPOS>ATOM
      1 N         144.1305  141.3388  164.3560 N.3     1  UNL1       -0.2653
      2 C         143.8559  142.4422  165.3343 C.3     1  UNL1        0.1036
      3 C         143.3201  142.1196  166.6976 C.3     1  UNL1        0.1470
      4 C         142.7843  141.7969  168.0611 C.3     1  UNL1        0.1035
      5 N         142.5231  140.3709  168.4461 N.3     1  UNL1       -0.2685
      6 C         142.7977  139.2675  167.4677 C.3     1  UNL1        0.1035
      7 C         143.3335  139.5902  166.1044 C.3     1  UNL1        0.1470
      8 C         143.8693  139.9128  164.7410 C.3     1  UNL1        0.1036
      9 O         143.0589  140.6935  167.0827 O.3     1  UNL1       -0.3530
     10 C         144.6663  141.6614  162.9925 C.3     1  UNL1        0.1202
     11 C         143.8166  141.4291  161.7785 C.3     1  UNL1        0.2226
     12 O         142.8419  142.4788  161.3331 O.3     1  UNL1       -0.4740
     13 C         139.9747  144.2875  164.2924 C.ar    1  UNL1        0.0686
     14 C         139.8728  142.8324  163.9425 C.ar    1  UNL1        0.0134
     15 C         140.8285  142.2295  162.9561 C.ar    1  UNL1        0.0376
     16 C         141.8862  143.0817  162.3195 C.ar    1  UNL1        0.1387
     17 C         141.9881  144.5367  162.6693 C.ar    1  UNL1        0.0376
     18 C         141.0323  145.1397  163.6558 C.ar    1  UNL1        0.0134
     19 N         138.0632  145.4933  166.2652 N.1     1  UNL1       -0.1908
     20 C         139.0189  144.8904  165.2788 C.1     1  UNL1        0.1004
     21 C         141.9873  140.0483  169.8095 C.3     1  UNL1        0.0737
     22 C         140.5079  139.9235  170.0238 C.3     1  UNL1        0.0362
     23 C         139.5544  140.4034  168.9700 C.3     1  UNL1        0.0929
     24 N         138.5625  139.4533  168.3673 N.3     1  UNL1       -0.1793
     25 H         137.6353  139.8027  168.6095 H       1  UNL1        0.1488
     26 S         138.5605  139.2102  166.8871 S.O2    1  UNL1        0.0602
     27 O         137.6033  138.0709  167.0755 O.2     1  UNL1       -0.1530
     28 O         139.5178  140.3495  166.6987 O.2     1  UNL1       -0.1530
     29 C         138.5586  138.9670  165.4070 C.ar    1  UNL1        0.1221
     30 C         139.1558  137.7074  164.8531 C.ar    1  UNL1        0.0222
     31 C         139.1538  137.4642  163.3729 C.ar    1  UNL1        0.0310
     32 C         138.5547  138.4807  162.4467 C.ar    1  UNL1        0.1402
     33 F         138.5528  138.2375  160.9665 F       1  UNL1       -0.2042
     34 C         137.9575  139.7403  163.0006 C.ar    1  UNL1        0.0310
     35 C         137.9595  139.9834  164.4807 C.ar    1  UNL1        0.0222
@<TRIPOS>BOND
     1    19    20    3
     2    20    13    1
     3    13    14   ar
     4    14    15   ar
     5    15    16   ar
     6    16    12    1
     7    12    11    1
     8    11    10    1
     9    10     1    1
    10     1     2    1
    11     2     3    1
    12     3     4    1
    13     4     5    1
    14     5    21    1
    15    21    22    1
    16    22    23    1
    17    23    24    1
    18    24    26    1
    19    26    27    2
    20    26    28    2
    21    26    29    1
    22    29    30   ar
    23    30    31   ar
    24    31    32   ar
    25    32    33    1
    26    32    34   ar
    27    34    35   ar
    28     5     6    1
    29     6     7    1
    30     7     8    1
    31     7     9    1
    32    16    17   ar
    33    17    18   ar
    34    18    13   ar
    35     8     1    1
    36     9     3    1
    37    35    29   ar
    38    24    25    1
@<TRIPOS>MOLECULE
*****
 35 38 0 0 0
SMALL
GASTEIGER

@<TRIPOS>ATOM
      1 N         140.1431  137.9362  163.1550 N.3     1  UNL1       -0.2653
      2 C         138.7939  138.5844  163.2515 C.3     1  UNL1        0.1036
      3 C         138.1586  139.1791  162.0297 C.3     1  UNL1        0.1470
      4 C         137.5231  139.7738  160.8080 C.3     1  UNL1        0.1035
      5 N         138.2370  139.7203  159.4898 N.3     1  UNL1       -0.2685
      6 C         139.5863  139.0720  159.3935 C.3     1  UNL1        0.1035
      7 C         140.2217  138.4774  160.6152 C.3     1  UNL1        0.1470
      8 C         140.8570  137.8827  161.8369 C.3     1  UNL1        0.1036
      9 O         138.8724  139.1256  160.7116 O.3     1  UNL1       -0.3530
     10 C         140.7786  137.3415  164.3768 C.3     1  UNL1        0.1202
     11 C         141.9678  138.0072  165.0032 C.3     1  UNL1        0.2226
     12 O         142.0490  139.5042  165.0539 O.3     1  UNL1       -0.4740
     13 C         140.4911  141.7218  168.6463 C.ar    1  UNL1        0.0686
     14 C         141.1055  140.3633  168.8117 C.ar    1  UNL1        0.0134
     15 C         141.6248  139.6242  167.6143 C.ar    1  UNL1        0.0376
     16 C         141.5297  140.2434  166.2513 C.ar    1  UNL1        0.1387
     17 C         140.9154  141.6018  166.0859 C.ar    1  UNL1        0.0376
     18 C         140.3961  142.3410  167.2834 C.ar    1  UNL1        0.0134
     19 N         139.4525  143.2001  171.0412 N.1     1  UNL1       -0.1908
     20 C         139.9718  142.4609  169.8437 C.1     1  UNL1        0.1004
     21 C         137.6017  140.3150  158.2681 C.3     1  UNL1        0.0737
     22 C         138.2404  141.4886  157.5864 C.3     1  UNL1        0.0362
     23 C         138.7177  142.6577  158.3959 C.3     1  UNL1        0.0929
     24 N         139.7381  142.4550  159.4765 N.3     1  UNL1       -0.1793
     25 H         140.6089  142.8660  159.1400 H       1  UNL1        0.1488
     26 S         139.4982  143.0119  160.8485 S.O2    1  UNL1        0.0602
     27 O         140.9435  142.7977  161.1881 O.2     1  UNL1       -0.1530
     28 O         138.0530  143.2260  160.5090 O.2     1  UNL1       -0.1530
     29 C         139.2584  143.5687  162.2205 C.ar    1  UNL1        0.1221
     30 C         140.3150  144.3978  162.8886 C.ar    1  UNL1        0.0222
     31 C         140.0752  144.9546  164.2607 C.ar    1  UNL1        0.0310
     32 C         138.7789  144.6824  164.9646 C.ar    1  UNL1        0.1402
     33 F         138.5391  145.2392  166.3366 F       1  UNL1       -0.2042
     34 C         137.7224  143.8533  164.2964 C.ar    1  UNL1        0.0310
     35 C         137.9621  143.2965  162.9244 C.ar    1  UNL1        0.0222
@<TRIPOS>BOND
     1    19    20    3
     2    20    13    1
     3    13    14   ar
     4    14    15   ar
     5    15    16   ar
     6    16    12    1
     7    12    11    1
     8    11    10    1
     9    10     1    1
    10     1     2    1
    11     2     3    1
    12     3     4    1
    13     4     5    1
    14     5    21    1
    15    21    22    1
    16    22    23    1
    17    23    24    1
    18    24    26    1
    19    26    27    2
    20    26    28    2
    21    26    29    1
    22    29    30   ar
    23    30    31   ar
    24    31    32   ar
    25    32    33    1
    26    32    34   ar
    27    34    35   ar
    28     5     6    1
    29     6     7    1
    30     7     8    1
    31     7     9    1
    32    16    17   ar
    33    17    18   ar
    34    18    13   ar
    35     8     1    1
    36     9     3    1
    37    35    29   ar
    38    24    25    1
@<TRIPOS>MOLECULE
*****
 35 38 0 0 0
SMALL
GASTEIGER

@<TRIPOS>ATOM
      1 N         139.3409  137.6408  163.7408 N.3     1  UNL1       -0.2653
      2 C         140.8129  137.6838  163.4560 C.3     1  UNL1        0.1036
      3 C         141.3016  138.0593  162.0885 C.3     1  UNL1        0.1470
      4 C         141.7903  138.4348  160.7209 C.3     1  UNL1        0.1035
      5 N         140.8069  138.7673  159.6381 N.3     1  UNL1       -0.2685
      6 C         139.3348  138.7243  159.9230 C.3     1  UNL1        0.1035
      7 C         138.8461  138.3488  161.2905 C.3     1  UNL1        0.1470
      8 C         138.3575  137.9733  162.6580 C.3     1  UNL1        0.1036
      9 O         140.3182  138.3918  161.0057 O.3     1  UNL1       -0.3530
     10 C         138.8522  137.2653  165.1084 C.3     1  UNL1        0.1202
     11 C         138.2785  138.3144  166.0141 C.3     1  UNL1        0.2226
     12 O         138.5772  139.7635  165.7670 O.3     1  UNL1       -0.4740
     13 C         141.0600  142.0838  168.7168 C.ar    1  UNL1        0.0686
     14 C         140.9061  142.5820  167.3103 C.ar    1  UNL1        0.0134
     15 C         140.0785  141.8086  166.3271 C.ar    1  UNL1        0.0376
     16 C         139.4048  140.5369  166.7502 C.ar    1  UNL1        0.1387
     17 C         139.5587  140.0387  168.1566 C.ar    1  UNL1        0.0376
     18 C         140.3863  140.8122  169.1400 C.ar    1  UNL1        0.0134
     19 N         142.7151  143.6307  170.6834 N.1     1  UNL1       -0.1908
     20 C         141.8876  142.8573  169.7001 C.1     1  UNL1        0.1004
     21 C         141.2955  139.1428  158.2706 C.3     1  UNL1        0.0737
     22 C         141.6572  140.5668  157.9682 C.3     1  UNL1        0.0362
     23 C         141.4122  141.6363  158.9910 C.3     1  UNL1        0.0929
     24 N         140.0085  142.0397  159.3327 N.3     1  UNL1       -0.1793
     25 H         139.4429  141.1914  159.3032 H       1  UNL1        0.1488
     26 S         139.7184  142.7083  160.6438 S.O2    1  UNL1        0.0602
     27 O         138.3231  143.0080  160.1821 O.2     1  UNL1       -0.1530
     28 O         141.1137  142.4086  161.1054 O.2     1  UNL1       -0.1530
     29 C         139.4282  143.3769  161.9548 C.ar    1  UNL1        0.1221
     30 C         140.5314  144.0565  162.7104 C.ar    1  UNL1        0.0222
     31 C         140.2413  144.7251  164.0215 C.ar    1  UNL1        0.0310
     32 C         138.8479  144.7141  164.5768 C.ar    1  UNL1        0.1402
     33 F         138.5578  145.3827  165.8878 F       1  UNL1       -0.2042
     34 C         137.7447  144.0345  163.8211 C.ar    1  UNL1        0.0310
     35 C         138.0349  143.3659  162.5101 C.ar    1  UNL1        0.0222
@<TRIPOS>BOND
     1    19    20    3
     2    20    13    1
     3    13    14   ar
     4    14    15   ar
     5    15    16   ar
     6    16    12    1
     7    12    11    1
     8    11    10    1
     9    10     1    1
    10     1     2    1
    11     2     3    1
    12     3     4    1
    13     4     5    1
    14     5    21    1
    15    21    22    1
    16    22    23    1
    17    23    24    1
    18    24    26    1
    19    26    27    2
    20    26    28    2
    21    26    29    1
    22    29    30   ar
    23    30    31   ar
    24    31    32   ar
    25    32    33    1
    26    32    34   ar
    27    34    35   ar
    28     5     6    1
    29     6     7    1
    30     7     8    1
    31     7     9    1
    32    16    17   ar
    33    17    18   ar
    34    18    13   ar
    35     8     1    1
    36     9     3    1
    37    35    29   ar
    38    24    25    1
@<TRIPOS>MOLECULE
*****
 35 38 0 0 0
SMALL
GASTEIGER

@<TRIPOS>ATOM
      1 N         139.4669  137.7710  164.0163 N.3     1  UNL1       -0.2653
      2 C         140.9575  137.6507  163.8996 C.3     1  UNL1        0.1036
      3 C         141.6230  137.8371  162.5683 C.3     1  UNL1        0.1470
      4 C         142.2886  138.0236  161.2370 C.3     1  UNL1        0.1035
      5 N         141.4635  138.3303  160.0225 N.3     1  UNL1       -0.2685
      6 C         139.9728  138.4506  160.1392 C.3     1  UNL1        0.1035
      7 C         139.3073  138.2641  161.4705 C.3     1  UNL1        0.1470
      8 C         138.6418  138.0777  162.8017 C.3     1  UNL1        0.1036
      9 O         140.7979  138.1439  161.3538 O.3     1  UNL1       -0.3530
     10 C         138.8013  137.5845  165.3476 C.3     1  UNL1        0.1202
     11 C         138.2075  138.7629  166.0608 C.3     1  UNL1        0.2226
     12 O         139.0695  139.9391  166.4126 O.3     1  UNL1       -0.4740
     13 C         139.2038  143.5232  163.6949 C.ar    1  UNL1        0.0686
     14 C         138.0625  142.5540  163.6023 C.ar    1  UNL1        0.0134
     15 C         138.0178  141.3594  164.5082 C.ar    1  UNL1        0.0376
     16 C         139.1142  141.1337  165.5067 C.ar    1  UNL1        0.1387
     17 C         140.2554  142.1028  165.5993 C.ar    1  UNL1        0.0376
     18 C         140.3002  143.2975  164.6933 C.ar    1  UNL1        0.0134
     19 N         139.2932  145.9125  161.8831 N.1     1  UNL1       -0.1908
     20 C         139.2485  144.7178  162.7890 C.1     1  UNL1        0.1004
     21 C         142.1290  138.5168  158.6912 C.3     1  UNL1        0.0737
     22 C         142.9845  139.7236  158.4428 C.3     1  UNL1        0.0362
     23 C         142.3817  141.0958  158.5039 C.3     1  UNL1        0.0929
     24 N         141.5523  141.4985  159.6871 N.3     1  UNL1       -0.1793
     25 H         141.0577  140.6626  159.9982 H       1  UNL1        0.1488
     26 S         142.2111  142.0882  160.8989 S.O2    1  UNL1        0.0602
     27 O         143.1829  142.8148  160.0171 O.2     1  UNL1       -0.1530
     28 O         141.2393  141.3616  161.7807 O.2     1  UNL1       -0.1530
     29 C         142.8698  142.6779  162.1106 C.ar    1  UNL1        0.1221
     30 C         142.9603  144.1671  162.2651 C.ar    1  UNL1        0.0222
     31 C         143.6191  144.7568  163.4769 C.ar    1  UNL1        0.0310
     32 C         144.1872  143.8572  164.5342 C.ar    1  UNL1        0.1402
     33 F         144.8459  144.4469  165.7459 F       1  UNL1       -0.2042
     34 C         144.0966  142.3679  164.3797 C.ar    1  UNL1        0.0310
     35 C         143.4379  141.7782  163.1680 C.ar    1  UNL1        0.0222
@<TRIPOS>BOND
     1    19    20    3
     2    20    13    1
     3    13    14   ar
     4    14    15   ar
     5    15    16   ar
     6    16    12    1
     7    12    11    1
     8    11    10    1
     9    10     1    1
    10     1     2    1
    11     2     3    1
    12     3     4    1
    13     4     5    1
    14     5    21    1
    15    21    22    1
    16    22    23    1
    17    23    24    1
    18    24    26    1
    19    26    27    2
    20    26    28    2
    21    26    29    1
    22    29    30   ar
    23    30    31   ar
    24    31    32   ar
    25    32    33    1
    26    32    34   ar
    27    34    35   ar
    28     5     6    1
    29     6     7    1
    30     7     8    1
    31     7     9    1
    32    16    17   ar
    33    17    18   ar
    34    18    13   ar
    35     8     1    1
    36     9     3    1
    37    35    29   ar
    38    24    25    1
