@<TRIPOS>MOLECULE
*****
 31 35 0 0 0
SMALL
GASTEIGER

@<TRIPOS>ATOM
      1 C         143.9223  142.9702  166.0074 C.3     1  UNL1        0.0285
      2 C         142.7948  142.1750  165.4188 C.3     1  UNL1        0.1321
      3 C         142.6299  142.0960  163.9300 C.3     1  UNL1        0.2279
      4 O         141.5024  141.3008  163.3415 O.3     1  UNL1       -0.4707
      5 C         140.5399  140.5845  164.2417 C.ar    1  UNL1        0.1675
      6 C         139.4124  139.7893  163.6531 C.ar    1  UNL1        0.0844
      7 C         138.4499  139.0730  164.5533 C.ar    1  UNL1        0.0280
      8 C         138.6148  139.1519  166.0422 C.ar    1  UNL1        0.0712
      9 C         139.7423  139.9471  166.6308 C.ar    1  UNL1        0.0288
     10 C         139.9072  140.0261  168.1195 C.ar    1  UNL1        0.0081
     11 C         141.0347  140.8213  168.7081 C.ar    1  UNL1        0.0702
     12 C         141.9972  141.5376  167.8079 C.ar    1  UNL1        0.2620
     13 O         143.1247  142.3328  168.3965 O.2     1  UNL1       -0.2669
     14 N         141.8323  141.4587  166.3190 N.ar    1  UNL1       -0.2909
     15 C         140.7048  140.6635  165.7305 C.ar    1  UNL1        0.0985
     16 N         139.2475  139.7104  162.1643 N.pl3   1  UNL1       -0.3050
     17 C         139.5149  138.5066  161.3102 C.3     1  UNL1        0.0910
     18 C         139.2189  138.8735  159.8862 C.3     1  UNL1        0.0244
     19 C         138.7684  140.3041  159.8602 C.3     1  UNL1        0.0344
     20 C         138.7861  140.8213  161.2682 C.3     1  UNL1        0.0921
     21 C         138.3703  141.0811  158.6405 C.3     1  UNL1        0.0406
     22 N         138.1085  139.9530  157.6870 N.3     1  UNL1       -0.3231
     23 C         138.0630  142.2497  157.7519 C.3     1  UNL1        0.0156
     24 C         138.4938  142.4789  159.1703 C.3     1  UNL1        0.0156
     25 H         138.2787  139.0640  158.1572 H       1  UNL1        0.1188
     26 H         138.7299  140.0367  156.8825 H       1  UNL1        0.1188
     27 C         141.1996  140.9002  170.1970 C.2     1  UNL1        0.0775
     28 O         142.3983  140.2812  170.8526 O.co2   1  UNL1       -0.5444
     29 O         140.1658  141.5982  171.0301 O.co2   1  UNL1       -0.5444
     30 C         137.6523  138.4356  166.9424 C.1     1  UNL1        0.1005
     31 N         136.6897  137.7193  167.8427 N.1     1  UNL1       -0.1908
@<TRIPOS>UNITY_ATOM_ATTR
28 1
charge -1
@<TRIPOS>BOND
     1     2     1    1
     2     2     3    1
     3     3     4    1
     4     4     5    1
     5     5     6   ar
     6     6    16    1
     7    16    17    1
     8    17    18    1
     9    18    19    1
    10    19    21    1
    11    21    22    1
    12    21    23    1
    13    23    24    1
    14    19    20    1
    15     6     7   ar
    16     7     8   ar
    17     8    30    1
    18    30    31    3
    19     8     9   ar
    20     9    10   ar
    21    10    11   ar
    22    11    27    1
    23    27    28   ar
    24    27    29   ar
    25    11    12   ar
    26    12    13    2
    27    12    14   ar
    28    14    15   ar
    29    14     2    1
    30    15     5   ar
    31    20    16    1
    32    15     9   ar
    33    24    21    1
    34    22    25    1
    35    22    26    1
@<TRIPOS>MOLECULE
*****
 31 35 0 0 0
SMALL
GASTEIGER

@<TRIPOS>ATOM
      1 C         143.9047  143.0754  166.0061 C.3     1  UNL1        0.0285
      2 C         142.7557  142.3098  165.4198 C.3     1  UNL1        0.1321
      3 C         142.5370  142.3050  163.9359 C.3     1  UNL1        0.2279
      4 O         141.3880  141.5395  163.3496 O.3     1  UNL1       -0.4707
      5 C         140.4577  140.7787  164.2473 C.ar    1  UNL1        0.1675
      6 C         139.3087  140.0131  163.6610 C.ar    1  UNL1        0.0844
      7 C         138.3785  139.2524  164.5587 C.ar    1  UNL1        0.0280
      8 C         138.5972  139.2571  166.0427 C.ar    1  UNL1        0.0712
      9 C         139.7462  140.0227  166.6290 C.ar    1  UNL1        0.0288
     10 C         139.9650  140.0274  168.1129 C.ar    1  UNL1        0.0081
     11 C         141.1140  140.7930  168.6991 C.ar    1  UNL1        0.0702
     12 C         142.0442  141.5538  167.8015 C.ar    1  UNL1        0.2620
     13 O         143.1932  142.3194  168.3878 O.2     1  UNL1       -0.2669
     14 N         141.8255  141.5490  166.3175 N.ar    1  UNL1       -0.2909
     15 C         140.6765  140.7835  165.7312 C.ar    1  UNL1        0.0985
     16 N         139.0900  140.0084  162.1771 N.pl3   1  UNL1       -0.3050
     17 C         137.9945  140.7255  161.4450 C.3     1  UNL1        0.0910
     18 C         138.1557  140.4460  159.9801 C.3     1  UNL1        0.0244
     19 C         139.3508  139.5561  159.8068 C.3     1  UNL1        0.0344
     20 C         139.9282  139.2856  161.1646 C.3     1  UNL1        0.0921
     21 C         139.8762  139.0292  158.5044 C.3     1  UNL1        0.0406
     22 N         138.7156  139.3456  157.6082 N.3     1  UNL1       -0.3231
     23 C         140.8046  138.3924  157.5132 C.3     1  UNL1        0.0156
     24 C         141.2192  138.5298  158.9482 C.3     1  UNL1        0.0156
     25 H         137.9793  139.7961  158.1517 H       1  UNL1        0.1188
     26 H         138.3568  138.4828  157.1991 H       1  UNL1        0.1188
     27 C         141.3327  140.7978  170.1832 C.2     1  UNL1        0.0775
     28 O         140.3201  141.4340  171.0885 O.co2   1  UNL1       -0.5444
     29 O         142.5642  140.1663  170.7618 O.co2   1  UNL1       -0.5444
     30 C         137.6670  138.4963  166.9403 C.1     1  UNL1        0.1005
     31 N         136.7367  137.7355  167.8380 N.1     1  UNL1       -0.1908
@<TRIPOS>UNITY_ATOM_ATTR
28 1
charge -1
@<TRIPOS>BOND
     1     2     1    1
     2     2     3    1
     3     3     4    1
     4     4     5    1
     5     5     6   ar
     6     6    16    1
     7    16    17    1
     8    17    18    1
     9    18    19    1
    10    19    21    1
    11    21    22    1
    12    21    23    1
    13    23    24    1
    14    19    20    1
    15     6     7   ar
    16     7     8   ar
    17     8    30    1
    18    30    31    3
    19     8     9   ar
    20     9    10   ar
    21    10    11   ar
    22    11    27    1
    23    27    28   ar
    24    27    29   ar
    25    11    12   ar
    26    12    13    2
    27    12    14   ar
    28    14    15   ar
    29    14     2    1
    30    15     5   ar
    31    20    16    1
    32    15     9   ar
    33    24    21    1
    34    22    25    1
    35    22    26    1
@<TRIPOS>MOLECULE
*****
 31 35 0 0 0
SMALL
GASTEIGER

@<TRIPOS>ATOM
      1 C         137.8080  138.7517  167.2557 C.3     1  UNL1        0.0285
      2 C         138.7672  139.3285  166.2570 C.3     1  UNL1        0.1321
      3 C         138.6154  139.0080  164.7996 C.3     1  UNL1        0.2279
      4 O         139.5746  139.5848  163.8009 O.3     1  UNL1       -0.4707
      5 C         140.6856  140.4820  164.2597 C.ar    1  UNL1        0.1675
      6 C         141.6448  141.0588  163.2611 C.ar    1  UNL1        0.0844
      7 C         142.7558  141.9561  163.7199 C.ar    1  UNL1        0.0280
      8 C         142.9077  142.2766  165.1774 C.ar    1  UNL1        0.0712
      9 C         141.9485  141.6998  166.1761 C.ar    1  UNL1        0.0288
     10 C         142.1003  142.0203  167.6335 C.ar    1  UNL1        0.0081
     11 C         141.1411  141.4435  168.6322 C.ar    1  UNL1        0.0702
     12 C         140.0301  140.5463  168.1733 C.ar    1  UNL1        0.2620
     13 O         139.0709  139.9695  169.1720 O.2     1  UNL1       -0.2669
     14 N         139.8782  140.2257  166.7158 N.ar    1  UNL1       -0.2909
     15 C         140.8374  140.8025  165.7172 C.ar    1  UNL1        0.0985
     16 N         141.4930  140.7383  161.8037 N.pl3   1  UNL1       -0.3050
     17 C         140.5249  141.3818  160.8555 C.3     1  UNL1        0.0910
     18 C         140.7162  140.7593  159.5043 C.3     1  UNL1        0.0244
     19 C         141.8025  139.7310  159.6172 C.3     1  UNL1        0.0344
     20 C         142.2826  139.7181  161.0383 C.3     1  UNL1        0.0921
     21 C         142.3182  138.8674  158.5045 C.3     1  UNL1        0.0406
     22 N         143.7878  139.1455  158.6186 N.3     1  UNL1       -0.3231
     23 C         142.3236  137.9072  157.3521 C.3     1  UNL1        0.0156
     24 C         141.0277  138.2894  158.0039 C.3     1  UNL1        0.0156
     25 H         143.9513  139.8022  159.3818 H       1  UNL1        0.1188
     26 H         144.1265  139.5484  157.7449 H       1  UNL1        0.1188
     27 C         141.2929  141.7640  170.0897 C.2     1  UNL1        0.0775
     28 O         141.9731  140.7896  171.0050 O.co2   1  UNL1       -0.5444
     29 O         140.7646  143.0590  170.6318 O.co2   1  UNL1       -0.5444
     30 C         144.0187  143.1739  165.6363 C.1     1  UNL1        0.1005
     31 N         145.1297  144.0712  166.0951 N.1     1  UNL1       -0.1908
@<TRIPOS>UNITY_ATOM_ATTR
28 1
charge -1
@<TRIPOS>BOND
     1     2     1    1
     2     2     3    1
     3     3     4    1
     4     4     5    1
     5     5     6   ar
     6     6    16    1
     7    16    17    1
     8    17    18    1
     9    18    19    1
    10    19    21    1
    11    21    22    1
    12    21    23    1
    13    23    24    1
    14    19    20    1
    15     6     7   ar
    16     7     8   ar
    17     8    30    1
    18    30    31    3
    19     8     9   ar
    20     9    10   ar
    21    10    11   ar
    22    11    27    1
    23    27    28   ar
    24    27    29   ar
    25    11    12   ar
    26    12    13    2
    27    12    14   ar
    28    14    15   ar
    29    14     2    1
    30    15     5   ar
    31    20    16    1
    32    15     9   ar
    33    24    21    1
    34    22    25    1
    35    22    26    1
@<TRIPOS>MOLECULE
*****
 31 35 0 0 0
SMALL
GASTEIGER

@<TRIPOS>ATOM
      1 C         144.0538  138.7794  165.5241 C.3     1  UNL1        0.0285
      2 C         143.3826  139.9201  164.8182 C.3     1  UNL1        0.1321
      3 C         143.7224  140.2217  163.3887 C.3     1  UNL1        0.2279
      4 O         143.0512  141.3623  162.6828 O.3     1  UNL1       -0.4707
      5 C         142.0401  142.2014  163.4063 C.ar    1  UNL1        0.1675
      6 C         141.3688  143.3420  162.7004 C.ar    1  UNL1        0.0844
      7 C         140.3577  144.1811  163.4240 C.ar    1  UNL1        0.0280
      8 C         140.0178  143.8795  164.8535 C.ar    1  UNL1        0.0712
      9 C         140.6891  142.7389  165.5595 C.ar    1  UNL1        0.0288
     10 C         140.3492  142.4372  166.9889 C.ar    1  UNL1        0.0081
     11 C         141.0204  141.2966  167.6949 C.ar    1  UNL1        0.0702
     12 C         142.0315  140.4575  166.9713 C.ar    1  UNL1        0.2620
     13 O         142.7028  139.3169  167.6772 O.2     1  UNL1       -0.2669
     14 N         142.3714  140.7591  165.5417 N.ar    1  UNL1       -0.2909
     15 C         141.7002  141.8998  164.8358 C.ar    1  UNL1        0.0985
     16 N         141.7087  143.6437  161.2709 N.pl3   1  UNL1       -0.3050
     17 C         142.7975  142.9957  160.4679 C.3     1  UNL1        0.0910
     18 C         142.7812  143.5977  159.0941 C.3     1  UNL1        0.0244
     19 C         141.6823  144.6178  159.0480 C.3     1  UNL1        0.0344
     20 C         141.0195  144.6462  160.3934 C.3     1  UNL1        0.0921
     21 C         141.3115  145.4614  157.8645 C.3     1  UNL1        0.0406
     22 N         142.5548  146.2907  157.7358 N.3     1  UNL1       -0.3231
     23 C         140.5089  146.0169  156.7256 C.3     1  UNL1        0.0156
     24 C         139.9394  144.9250  157.5821 C.3     1  UNL1        0.0156
     25 H         143.2186  146.0232  158.4626 H       1  UNL1        0.1188
     26 H         142.3174  147.2774  157.8385 H       1  UNL1        0.1188
     27 C         140.6805  140.9950  169.1244 C.2     1  UNL1        0.0775
     28 O         141.2238  141.8598  170.2230 O.co2   1  UNL1       -0.5444
     29 O         139.7973  139.8286  169.4553 O.co2   1  UNL1       -0.5444
     30 C         139.0067  144.7186  165.5771 C.1     1  UNL1        0.1005
     31 N         137.9956  145.5577  166.3008 N.1     1  UNL1       -0.1908
@<TRIPOS>UNITY_ATOM_ATTR
28 1
charge -1
@<TRIPOS>BOND
     1     2     1    1
     2     2     3    1
     3     3     4    1
     4     4     5    1
     5     5     6   ar
     6     6    16    1
     7    16    17    1
     8    17    18    1
     9    18    19    1
    10    19    21    1
    11    21    22    1
    12    21    23    1
    13    23    24    1
    14    19    20    1
    15     6     7   ar
    16     7     8   ar
    17     8    30    1
    18    30    31    3
    19     8     9   ar
    20     9    10   ar
    21    10    11   ar
    22    11    27    1
    23    27    28   ar
    24    27    29   ar
    25    11    12   ar
    26    12    13    2
    27    12    14   ar
    28    14    15   ar
    29    14     2    1
    30    15     5   ar
    31    20    16    1
    32    15     9   ar
    33    24    21    1
    34    22    25    1
    35    22    26    1
@<TRIPOS>MOLECULE
*****
 31 35 0 0 0
SMALL
GASTEIGER

@<TRIPOS>ATOM
      1 C         139.4413  144.1049  165.8618 C.3     1  UNL1        0.0285
      2 C         140.2083  142.9773  165.2371 C.3     1  UNL1        0.1321
      3 C         140.2076  142.8046  163.7471 C.3     1  UNL1        0.2279
      4 O         140.9746  141.6770  163.1224 O.3     1  UNL1       -0.4707
      5 C         141.7423  140.7221  163.9877 C.ar    1  UNL1        0.1675
      6 C         142.5093  139.5945  163.3631 C.ar    1  UNL1        0.0844
      7 C         143.2771  138.6397  164.2284 C.ar    1  UNL1        0.0280
      8 C         143.2778  138.8124  165.7184 C.ar    1  UNL1        0.0712
      9 C         142.5108  139.9400  166.3431 C.ar    1  UNL1        0.0288
     10 C         142.5115  140.1128  167.8331 C.ar    1  UNL1        0.0081
     11 C         141.7445  141.2404  168.4578 C.ar    1  UNL1        0.0702
     12 C         140.9768  142.1952  167.5925 C.ar    1  UNL1        0.2620
     13 O         140.2098  143.3228  168.2171 O.2     1  UNL1       -0.2669
     14 N         140.9760  142.0225  166.1024 N.ar    1  UNL1       -0.2909
     15 C         141.7431  140.8949  165.4777 C.ar    1  UNL1        0.0985
     16 N         142.5086  139.4218  161.8731 N.pl3   1  UNL1       -0.3050
     17 C         141.5990  138.5218  161.0902 C.3     1  UNL1        0.0910
     18 C         141.9455  138.6625  159.6376 C.3     1  UNL1        0.0244
     19 C         143.0694  139.6493  159.5226 C.3     1  UNL1        0.0344
     20 C         143.4174  140.1186  160.9042 C.3     1  UNL1        0.0921
     21 C         143.7293  140.0896  158.2496 C.3     1  UNL1        0.0406
     22 N         143.5343  138.8580  157.4156 N.3     1  UNL1       -0.3231
     23 C         144.4570  140.9574  157.2661 C.3     1  UNL1        0.0156
     24 C         144.1535  141.4739  158.6414 C.3     1  UNL1        0.0156
     25 H         143.0384  138.1531  157.9611 H       1  UNL1        0.1188
     26 H         144.4432  138.4916  157.1326 H       1  UNL1        0.1188
     27 C         141.7453  141.4131  169.9479 C.2     1  UNL1        0.0775
     28 O         140.9838  140.4544  170.8144 O.co2   1  UNL1       -0.5444
     29 O         142.5076  142.5445  170.5713 O.co2   1  UNL1       -0.5444
     30 C         144.0455  137.8576  166.5837 C.1     1  UNL1        0.1005
     31 N         144.8133  136.9026  167.4491 N.1     1  UNL1       -0.1908
@<TRIPOS>UNITY_ATOM_ATTR
28 1
charge -1
@<TRIPOS>BOND
     1     2     1    1
     2     2     3    1
     3     3     4    1
     4     4     5    1
     5     5     6   ar
     6     6    16    1
     7    16    17    1
     8    17    18    1
     9    18    19    1
    10    19    21    1
    11    21    22    1
    12    21    23    1
    13    23    24    1
    14    19    20    1
    15     6     7   ar
    16     7     8   ar
    17     8    30    1
    18    30    31    3
    19     8     9   ar
    20     9    10   ar
    21    10    11   ar
    22    11    27    1
    23    27    28   ar
    24    27    29   ar
    25    11    12   ar
    26    12    13    2
    27    12    14   ar
    28    14    15   ar
    29    14     2    1
    30    15     5   ar
    31    20    16    1
    32    15     9   ar
    33    24    21    1
    34    22    25    1
    35    22    26    1
@<TRIPOS>MOLECULE
*****
 31 35 0 0 0
SMALL
GASTEIGER

@<TRIPOS>ATOM
      1 C         144.0381  137.8165  161.2081 C.3     1  UNL1        0.0285
      2 C         143.0772  138.6283  162.0253 C.3     1  UNL1        0.1321
      3 C         142.6093  138.1200  163.3567 C.3     1  UNL1        0.2279
      4 O         141.6484  138.9317  164.1739 O.3     1  UNL1       -0.4707
      5 C         141.1555  140.2518  163.6597 C.ar    1  UNL1        0.1675
      6 C         140.1946  141.0635  164.4769 C.ar    1  UNL1        0.0844
      7 C         139.7017  142.3836  163.9627 C.ar    1  UNL1        0.0280
      8 C         140.1696  142.8919  162.6313 C.ar    1  UNL1        0.0712
      9 C         141.1305  142.0802  161.8141 C.ar    1  UNL1        0.0288
     10 C         141.5984  142.5885  160.4827 C.ar    1  UNL1        0.0081
     11 C         142.5593  141.7768  159.6655 C.ar    1  UNL1        0.0702
     12 C         143.0522  140.4567  160.1797 C.ar    1  UNL1        0.2620
     13 O         144.0131  139.6450  159.3625 O.2     1  UNL1       -0.2669
     14 N         142.5843  139.9483  161.5111 N.ar    1  UNL1       -0.2909
     15 C         141.6234  140.7601  162.3283 C.ar    1  UNL1        0.0985
     16 N         139.7267  140.5552  165.8083 N.pl3   1  UNL1       -0.3050
     17 C         138.6277  139.5598  166.0354 C.3     1  UNL1        0.0910
     18 C         138.4973  139.3424  167.5138 C.3     1  UNL1        0.0244
     19 C         139.5158  140.2034  168.2005 C.3     1  UNL1        0.0344
     20 C         140.2756  140.9529  167.1464 C.3     1  UNL1        0.0921
     21 C         139.7358  140.2982  169.6812 C.3     1  UNL1        0.0406
     22 N         138.3508  139.9940  170.1704 N.3     1  UNL1       -0.3231
     23 C         140.4368  140.4986  170.9921 C.3     1  UNL1        0.0156
     24 C         141.1972  140.6353  169.7063 C.3     1  UNL1        0.0156
     25 H         137.7371  139.8290  169.3726 H       1  UNL1        0.1188
     26 H         138.0001  140.7844  170.7114 H       1  UNL1        0.1188
     27 C         143.0272  142.2851  158.3341 C.2     1  UNL1        0.0775
     28 O         144.4048  142.8618  158.1934 O.co2   1  UNL1       -0.5444
     29 O         142.1176  142.2168  157.1433 O.co2   1  UNL1       -0.5444
     30 C         139.6767  144.2120  162.1171 C.1     1  UNL1        0.1005
     31 N         139.1838  145.5321  161.6028 N.1     1  UNL1       -0.1908
@<TRIPOS>UNITY_ATOM_ATTR
28 1
charge -1
@<TRIPOS>BOND
     1     2     1    1
     2     2     3    1
     3     3     4    1
     4     4     5    1
     5     5     6   ar
     6     6    16    1
     7    16    17    1
     8    17    18    1
     9    18    19    1
    10    19    21    1
    11    21    22    1
    12    21    23    1
    13    23    24    1
    14    19    20    1
    15     6     7   ar
    16     7     8   ar
    17     8    30    1
    18    30    31    3
    19     8     9   ar
    20     9    10   ar
    21    10    11   ar
    22    11    27    1
    23    27    28   ar
    24    27    29   ar
    25    11    12   ar
    26    12    13    2
    27    12    14   ar
    28    14    15   ar
    29    14     2    1
    30    15     5   ar
    31    20    16    1
    32    15     9   ar
    33    24    21    1
    34    22    25    1
    35    22    26    1
@<TRIPOS>MOLECULE
*****
 31 35 0 0 0
SMALL
GASTEIGER

@<TRIPOS>ATOM
      1 C         140.1281  145.9498  162.0022 C.3     1  UNL1        0.0285
      2 C         140.3159  144.6130  162.6561 C.3     1  UNL1        0.1321
      3 C         139.6587  144.3232  163.9729 C.3     1  UNL1        0.2279
      4 O         139.8466  142.9864  164.6268 O.3     1  UNL1       -0.4707
      5 C         140.6916  141.9393  163.9639 C.ar    1  UNL1        0.1675
      6 C         140.8795  140.6025  164.6178 C.ar    1  UNL1        0.0844
      7 C         141.7245  139.5554  163.9549 C.ar    1  UNL1        0.0280
      8 C         142.3818  139.8452  162.6380 C.ar    1  UNL1        0.0712
      9 C         142.1940  141.1820  161.9841 C.ar    1  UNL1        0.0288
     10 C         142.8512  141.4718  160.6673 C.ar    1  UNL1        0.0081
     11 C         142.6633  142.8086  160.0134 C.ar    1  UNL1        0.0702
     12 C         141.8183  143.8557  160.6763 C.ar    1  UNL1        0.2620
     13 O         141.6304  145.1925  160.0224 O.2     1  UNL1       -0.2669
     14 N         141.1610  143.5659  161.9932 N.ar    1  UNL1       -0.2909
     15 C         141.3488  142.2291  162.6471 C.ar    1  UNL1        0.0985
     16 N         140.2223  140.3127  165.9346 N.pl3   1  UNL1       -0.3050
     17 C         138.9071  139.6181  166.1297 C.3     1  UNL1        0.0910
     18 C         138.6368  139.5427  167.6032 C.3     1  UNL1        0.0244
     19 C         139.7849  140.1907  168.3189 C.3     1  UNL1        0.0344
     20 C         140.7647  140.6666  167.2876 C.3     1  UNL1        0.0921
     21 C         139.9279  140.3372  169.8048 C.3     1  UNL1        0.0406
     22 N         138.5448  139.9518  170.2389 N.3     1  UNL1       -0.3231
     23 C         140.5513  140.6174  171.1400 C.3     1  UNL1        0.0156
     24 C         141.3607  140.7733  169.8868 C.3     1  UNL1        0.0156
     25 H         137.9817  139.7256  169.4190 H       1  UNL1        0.1188
     26 H         138.1169  140.7297  170.7411 H       1  UNL1        0.1188
     27 C         143.3206  143.0984  158.6965 C.2     1  UNL1        0.0775
     28 O         142.4929  143.5405  157.5263 O.co2   1  UNL1       -0.5444
     29 O         144.8056  142.9460  158.5498 O.co2   1  UNL1       -0.5444
     30 C         143.2268  138.7981  161.9751 C.1     1  UNL1        0.1005
     31 N         144.0719  137.7510  161.3121 N.1     1  UNL1       -0.1908
@<TRIPOS>UNITY_ATOM_ATTR
28 1
charge -1
@<TRIPOS>BOND
     1     2     1    1
     2     2     3    1
     3     3     4    1
     4     4     5    1
     5     5     6   ar
     6     6    16    1
     7    16    17    1
     8    17    18    1
     9    18    19    1
    10    19    21    1
    11    21    22    1
    12    21    23    1
    13    23    24    1
    14    19    20    1
    15     6     7   ar
    16     7     8   ar
    17     8    30    1
    18    30    31    3
    19     8     9   ar
    20     9    10   ar
    21    10    11   ar
    22    11    27    1
    23    27    28   ar
    24    27    29   ar
    25    11    12   ar
    26    12    13    2
    27    12    14   ar
    28    14    15   ar
    29    14     2    1
    30    15     5   ar
    31    20    16    1
    32    15     9   ar
    33    24    21    1
    34    22    25    1
    35    22    26    1
@<TRIPOS>MOLECULE
*****
 31 35 0 0 0
SMALL
GASTEIGER

@<TRIPOS>ATOM
      1 C         138.1153  137.7009  162.3289 C.3     1  UNL1        0.0285
      2 C         139.1425  138.3270  163.2250 C.3     1  UNL1        0.1321
      3 C         138.9052  138.3956  164.7044 C.3     1  UNL1        0.2279
      4 O         139.9323  139.0218  165.6005 O.3     1  UNL1       -0.4707
      5 C         141.1967  139.5792  165.0171 C.ar    1  UNL1        0.1675
      6 C         142.2238  140.2054  165.9132 C.ar    1  UNL1        0.0844
      7 C         143.4883  140.7629  165.3298 C.ar    1  UNL1        0.0280
      8 C         143.7256  140.6942  163.8502 C.ar    1  UNL1        0.0712
      9 C         142.6985  140.0681  162.9542 C.ar    1  UNL1        0.0288
     10 C         142.9358  139.9995  161.4747 C.ar    1  UNL1        0.0081
     11 C         141.9086  139.3733  160.5786 C.ar    1  UNL1        0.0702
     12 C         140.6442  138.8159  161.1620 C.ar    1  UNL1        0.2620
     13 O         139.6171  138.1897  160.2659 O.2     1  UNL1       -0.2669
     14 N         140.4069  138.8845  162.6416 N.ar    1  UNL1       -0.2909
     15 C         141.4340  139.5106  163.5376 C.ar    1  UNL1        0.0985
     16 N         141.9866  140.2740  167.3927 N.pl3   1  UNL1       -0.3050
     17 C         142.5873  139.3665  168.4251 C.3     1  UNL1        0.0910
     18 C         142.0789  139.7938  169.7701 C.3     1  UNL1        0.0244
     19 C         141.1639  140.9654  169.5690 C.3     1  UNL1        0.0344
     20 C         141.1069  141.2622  168.0997 C.3     1  UNL1        0.0921
     21 C         140.4342  141.7095  170.6478 C.3     1  UNL1        0.0406
     22 N         140.5496  140.7208  171.7700 N.3     1  UNL1       -0.3231
     23 C         139.6645  142.7969  171.3368 C.3     1  UNL1        0.0156
     24 C         140.0654  142.9566  169.9003 C.3     1  UNL1        0.0156
     25 H         141.0638  139.9006  171.4489 H       1  UNL1        0.1188
     26 H         139.6170  140.4403  172.0732 H       1  UNL1        0.1188
     27 C         142.1460  139.3047  159.0990 C.2     1  UNL1        0.0775
     28 O         143.2907  138.4994  158.5596 O.co2   1  UNL1       -0.5444
     29 O         141.2385  140.0415  158.1589 O.co2   1  UNL1       -0.5444
     30 C         144.9900  141.2517  163.2668 C.1     1  UNL1        0.1005
     31 N         146.2545  141.8092  162.6834 N.1     1  UNL1       -0.1908
@<TRIPOS>UNITY_ATOM_ATTR
28 1
charge -1
@<TRIPOS>BOND
     1     2     1    1
     2     2     3    1
     3     3     4    1
     4     4     5    1
     5     5     6   ar
     6     6    16    1
     7    16    17    1
     8    17    18    1
     9    18    19    1
    10    19    21    1
    11    21    22    1
    12    21    23    1
    13    23    24    1
    14    19    20    1
    15     6     7   ar
    16     7     8   ar
    17     8    30    1
    18    30    31    3
    19     8     9   ar
    20     9    10   ar
    21    10    11   ar
    22    11    27    1
    23    27    28   ar
    24    27    29   ar
    25    11    12   ar
    26    12    13    2
    27    12    14   ar
    28    14    15   ar
    29    14     2    1
    30    15     5   ar
    31    20    16    1
    32    15     9   ar
    33    24    21    1
    34    22    25    1
    35    22    26    1
@<TRIPOS>MOLECULE
*****
 31 35 0 0 0
SMALL
GASTEIGER

@<TRIPOS>ATOM
      1 C         143.6777  138.3200  166.2628 C.3     1  UNL1        0.0285
      2 C         142.8444  139.2465  165.4278 C.3     1  UNL1        0.1321
      3 C         142.7664  139.0521  163.9425 C.3     1  UNL1        0.2279
      4 O         141.9331  139.9787  163.1076 O.3     1  UNL1       -0.4707
      5 C         141.1778  141.0996  163.7579 C.ar    1  UNL1        0.1675
      6 C         140.3445  142.0261  162.9230 C.ar    1  UNL1        0.0844
      7 C         139.5891  143.1470  163.5733 C.ar    1  UNL1        0.0280
      8 C         139.6670  143.3414  165.0587 C.ar    1  UNL1        0.0712
      9 C         140.5003  142.4149  165.8936 C.ar    1  UNL1        0.0288
     10 C         140.5783  142.6092  167.3789 C.ar    1  UNL1        0.0081
     11 C         141.4116  141.6827  168.2139 C.ar    1  UNL1        0.0702
     12 C         142.1670  140.5618  167.5635 C.ar    1  UNL1        0.2620
     13 O         143.0003  139.6353  168.3985 O.2     1  UNL1       -0.2669
     14 N         142.0891  140.3674  166.0782 N.ar    1  UNL1       -0.2909
     15 C         141.2557  141.2939  165.2432 C.ar    1  UNL1        0.0985
     16 N         140.2665  141.8317  161.4377 N.pl3   1  UNL1       -0.3050
     17 C         141.3572  142.1276  160.4513 C.3     1  UNL1        0.0910
     18 C         140.8490  141.7861  159.0820 C.3     1  UNL1        0.0244
     19 C         139.4441  141.2792  159.2220 C.3     1  UNL1        0.0344
     20 C         139.0842  141.3074  160.6780 C.3     1  UNL1        0.0921
     21 C         138.5554  140.8240  158.1027 C.3     1  UNL1        0.0406
     22 N         138.8195  139.3479  158.1442 N.3     1  UNL1       -0.3231
     23 C         137.5749  140.8813  156.9690 C.3     1  UNL1        0.0156
     24 C         137.9826  142.1418  157.6725 C.3     1  UNL1        0.0156
     25 H         139.4879  139.1429  158.8870 H       1  UNL1        0.1188
     26 H         139.2032  139.0459  157.2487 H       1  UNL1        0.1188
     27 C         141.4896  141.8771  169.6992 C.2     1  UNL1        0.0775
     28 O         142.7491  142.4024  170.3218 O.co2   1  UNL1       -0.5444
     29 O         140.3080  141.5461  170.5619 O.co2   1  UNL1       -0.5444
     30 C         138.9117  144.4623  165.7090 C.1     1  UNL1        0.1005
     31 N         138.1562  145.5832  166.3595 N.1     1  UNL1       -0.1908
@<TRIPOS>UNITY_ATOM_ATTR
28 1
charge -1
@<TRIPOS>BOND
     1     2     1    1
     2     2     3    1
     3     3     4    1
     4     4     5    1
     5     5     6   ar
     6     6    16    1
     7    16    17    1
     8    17    18    1
     9    18    19    1
    10    19    21    1
    11    21    22    1
    12    21    23    1
    13    23    24    1
    14    19    20    1
    15     6     7   ar
    16     7     8   ar
    17     8    30    1
    18    30    31    3
    19     8     9   ar
    20     9    10   ar
    21    10    11   ar
    22    11    27    1
    23    27    28   ar
    24    27    29   ar
    25    11    12   ar
    26    12    13    2
    27    12    14   ar
    28    14    15   ar
    29    14     2    1
    30    15     5   ar
    31    20    16    1
    32    15     9   ar
    33    24    21    1
    34    22    25    1
    35    22    26    1
