@<TRIPOS>MOLECULE
*****
 23 26 0 0 0
SMALL
GASTEIGER

@<TRIPOS>ATOM
      1 O         137.4791  138.1854  166.6010 O.2     1  UNL1       -0.2666
      2 C         138.7245  138.9595  166.2849 C.2     1  UNL1        0.2837
      3 C         139.4349  139.7130  167.3701 C.ar    1  UNL1        0.1985
      4 N         139.1466  139.8761  168.8330 N.ar    1  UNL1       -0.2226
      5 C         140.2136  140.7511  169.4211 C.ar    1  UNL1        0.0993
      6 C         140.4446  141.2527  170.8157 C.ar    1  UNL1        0.0207
      7 C         141.6235  142.1319  171.1108 C.ar    1  UNL1        0.0021
      8 C         142.5714  142.5096  170.0113 C.ar    1  UNL1        0.0082
      9 C         142.3404  142.0079  168.6167 C.ar    1  UNL1        0.0518
     10 BR        143.2883  142.3855  167.5172 Br      1  UNL1       -0.0474
     11 C         141.1615  141.1287  168.3216 C.ar    1  UNL1        0.0853
     12 N         140.6802  140.4871  167.0540 N.ar    1  UNL1       -0.3056
     13 C         141.2151  140.5078  165.6528 C.3     1  UNL1        0.1291
     14 C         140.5046  139.7543  164.5676 C.3     1  UNL1        0.1186
     15 N         139.2593  138.9802  164.8837 N.am    1  UNL1       -0.2675
     16 C         138.5488  138.2267  163.7985 C.3     1  UNL1        0.1206
     17 C         138.6140  138.7135  162.3812 C.ar    1  UNL1       -0.0023
     18 C         139.4979  138.0174  161.3891 C.ar    1  UNL1       -0.0021
     19 C         139.5631  138.5041  159.9717 C.ar    1  UNL1        0.0064
     20 C         138.7444  139.6869  159.5465 C.ar    1  UNL1        0.0345
     21 BR        138.8095  140.1736  158.1291 Br      1  UNL1       -0.0490
     22 C         137.8605  140.3830  160.5386 C.ar    1  UNL1        0.0064
     23 C         137.7953  139.8962  161.9560 C.ar    1  UNL1       -0.0021
@<TRIPOS>BOND
     1     1     2    2
     2     2     3    1
     3     3     4   ar
     4     4     5   ar
     5     5     6   ar
     6     6     7   ar
     7     7     8   ar
     8     8     9   ar
     9     9    10    1
    10     9    11   ar
    11    11    12   ar
    12    12    13    1
    13    13    14    1
    14    14    15    1
    15    15    16    1
    16    16    17    1
    17    17    18   ar
    18    18    19   ar
    19    19    20   ar
    20    20    21    1
    21    20    22   ar
    22    22    23   ar
    23    15     2   am
    24    23    17   ar
    25    12     3   ar
    26    11     5   ar
@<TRIPOS>MOLECULE
*****
 23 26 0 0 0
SMALL
GASTEIGER

@<TRIPOS>ATOM
      1 O         139.1094  145.1097  163.6719 O.2     1  UNL1       -0.2666
      2 C         140.2327  144.4045  162.9713 C.2     1  UNL1        0.2837
      3 C         140.4868  144.6603  161.5153 C.ar    1  UNL1        0.1985
      4 N         139.8018  145.5463  160.5174 N.ar    1  UNL1       -0.2226
      5 C         140.5018  145.3887  159.2001 C.ar    1  UNL1        0.0993
      6 C         140.2659  146.0136  157.8571 C.ar    1  UNL1        0.0207
      7 C         141.1477  145.6552  156.6978 C.ar    1  UNL1        0.0021
      8 C         142.2653  144.6718  156.8816 C.ar    1  UNL1        0.0082
      9 C         142.5012  144.0469  158.2246 C.ar    1  UNL1        0.0518
     10 BR        143.6189  143.0635  158.4084 Br      1  UNL1       -0.0474
     11 C         141.6195  144.4054  159.3839 C.ar    1  UNL1        0.0853
     12 N         141.6102  143.9552  160.8147 N.ar    1  UNL1       -0.3056
     13 C         142.4795  142.9943  161.5702 C.3     1  UNL1        0.1291
     14 C         142.2255  142.7385  163.0263 C.3     1  UNL1        0.1186
     15 N         141.1021  143.4436  163.7268 N.am    1  UNL1       -0.2675
     16 C         140.8481  143.1878  165.1829 C.3     1  UNL1        0.1206
     17 C         140.0706  141.9773  165.6072 C.ar    1  UNL1       -0.0023
     18 C         139.0113  141.4130  164.7075 C.ar    1  UNL1       -0.0021
     19 C         138.2337  140.2024  165.1319 C.ar    1  UNL1        0.0064
     20 C         138.5155  139.5562  166.4559 C.ar    1  UNL1        0.0345
     21 BR        137.7380  138.3457  166.8803 Br      1  UNL1       -0.0490
     22 C         139.5749  140.1206  167.3556 C.ar    1  UNL1        0.0064
     23 C         140.3524  141.3311  166.9313 C.ar    1  UNL1       -0.0021
@<TRIPOS>BOND
     1     1     2    2
     2     2     3    1
     3     3     4   ar
     4     4     5   ar
     5     5     6   ar
     6     6     7   ar
     7     7     8   ar
     8     8     9   ar
     9     9    10    1
    10     9    11   ar
    11    11    12   ar
    12    12    13    1
    13    13    14    1
    14    14    15    1
    15    15    16    1
    16    16    17    1
    17    17    18   ar
    18    18    19   ar
    19    19    20   ar
    20    20    21    1
    21    20    22   ar
    22    22    23   ar
    23    15     2   am
    24    23    17   ar
    25    12     3   ar
    26    11     5   ar
@<TRIPOS>MOLECULE
*****
 23 26 0 0 0
SMALL
GASTEIGER

@<TRIPOS>ATOM
      1 O         141.8922  139.0872  163.7920 O.2     1  UNL1       -0.2666
      2 C         140.9391  139.2339  164.9410 C.2     1  UNL1        0.2837
      3 C         141.3372  140.0295  166.1488 C.ar    1  UNL1        0.1985
      4 N         142.5921  140.7774  166.4891 N.ar    1  UNL1       -0.2226
      5 C         142.4147  141.3862  167.8485 C.ar    1  UNL1        0.0993
      6 C         143.3194  142.2310  168.6957 C.ar    1  UNL1        0.0207
      7 C         142.8595  142.7041  170.0428 C.ar    1  UNL1        0.0021
      8 C         141.4949  142.3326  170.5426 C.ar    1  UNL1        0.0082
      9 C         140.5902  141.4878  169.6953 C.ar    1  UNL1        0.0518
     10 BR        139.2256  141.1162  170.1951 Br      1  UNL1       -0.0474
     11 C         141.0501  141.0147  168.3483 C.ar    1  UNL1        0.0853
     12 N         140.3842  140.1762  167.2978 N.ar    1  UNL1       -0.3056
     13 C         139.0331  139.5272  167.2391 C.3     1  UNL1        0.1291
     14 C         138.6351  138.7316  166.0313 C.3     1  UNL1        0.1186
     15 N         139.5881  138.5850  164.8823 N.am    1  UNL1       -0.2675
     16 C         139.1900  137.7894  163.6746 C.3     1  UNL1        0.1206
     17 C         138.9217  138.4852  162.3731 C.ar    1  UNL1       -0.0023
     18 C         137.8997  139.5810  162.3054 C.ar    1  UNL1       -0.0021
     19 C         137.6313  140.2769  161.0039 C.ar    1  UNL1        0.0064
     20 C         138.3850  139.8769  159.7702 C.ar    1  UNL1        0.0345
     21 BR        138.1167  140.5728  158.4687 Br      1  UNL1       -0.0490
     22 C         139.4071  138.7810  159.8380 C.ar    1  UNL1        0.0064
     23 C         139.6754  138.0852  161.1394 C.ar    1  UNL1       -0.0021
@<TRIPOS>BOND
     1     1     2    2
     2     2     3    1
     3     3     4   ar
     4     4     5   ar
     5     5     6   ar
     6     6     7   ar
     7     7     8   ar
     8     8     9   ar
     9     9    10    1
    10     9    11   ar
    11    11    12   ar
    12    12    13    1
    13    13    14    1
    14    14    15    1
    15    15    16    1
    16    16    17    1
    17    17    18   ar
    18    18    19   ar
    19    19    20   ar
    20    20    21    1
    21    20    22   ar
    22    22    23   ar
    23    15     2   am
    24    23    17   ar
    25    12     3   ar
    26    11     5   ar
@<TRIPOS>MOLECULE
*****
 23 26 0 0 0
SMALL
GASTEIGER

@<TRIPOS>ATOM
      1 O         138.1897  143.2389  161.0270 O.2     1  UNL1       -0.2666
      2 C         139.0688  143.4541  162.2231 C.2     1  UNL1        0.2837
      3 C         139.0016  142.5060  163.3836 C.ar    1  UNL1        0.1985
      4 N         138.1734  141.2803  163.6317 N.ar    1  UNL1       -0.2226
      5 C         138.5407  140.7379  164.9811 C.ar    1  UNL1        0.0993
      6 C         138.0506  139.5481  165.7520 C.ar    1  UNL1        0.0207
      7 C         138.6158  139.2490  167.1088 C.ar    1  UNL1        0.0021
      8 C         139.6710  140.1396  167.6948 C.ar    1  UNL1        0.0082
      9 C         140.1611  141.3293  166.9239 C.ar    1  UNL1        0.0518
     10 BR        141.2163  142.2199  167.5099 Br      1  UNL1       -0.0474
     11 C         139.5959  141.6284  165.5671 C.ar    1  UNL1        0.0853
     12 N         139.8808  142.7212  164.5798 N.ar    1  UNL1       -0.3056
     13 C         140.8272  143.8844  164.6154 C.3     1  UNL1        0.1291
     14 C         140.8944  144.8325  163.4549 C.3     1  UNL1        0.1186
     15 N         140.0152  144.6173  162.2588 N.am    1  UNL1       -0.2675
     16 C         140.0824  145.5653  161.0983 C.3     1  UNL1        0.1206
     17 C         140.7461  145.1420  159.8215 C.ar    1  UNL1       -0.0023
     18 C         141.8725  144.1520  159.8542 C.ar    1  UNL1       -0.0021
     19 C         142.5363  143.7286  158.5773 C.ar    1  UNL1        0.0064
     20 C         142.0736  144.2953  157.2678 C.ar    1  UNL1        0.0345
     21 BR        142.7374  143.8720  155.9910 Br      1  UNL1       -0.0490
     22 C         140.9472  145.2854  157.2351 C.ar    1  UNL1        0.0064
     23 C         140.2835  145.7087  158.5119 C.ar    1  UNL1       -0.0021
@<TRIPOS>BOND
     1     1     2    2
     2     2     3    1
     3     3     4   ar
     4     4     5   ar
     5     5     6   ar
     6     6     7   ar
     7     7     8   ar
     8     8     9   ar
     9     9    10    1
    10     9    11   ar
    11    11    12   ar
    12    12    13    1
    13    13    14    1
    14    14    15    1
    15    15    16    1
    16    16    17    1
    17    17    18   ar
    18    18    19   ar
    19    19    20   ar
    20    20    21    1
    21    20    22   ar
    22    22    23   ar
    23    15     2   am
    24    23    17   ar
    25    12     3   ar
    26    11     5   ar
@<TRIPOS>MOLECULE
*****
 23 26 0 0 0
SMALL
GASTEIGER

@<TRIPOS>ATOM
      1 O         141.4529  137.7354  165.0982 O.2     1  UNL1       -0.2666
      2 C         140.5422  138.3873  164.1003 C.2     1  UNL1        0.2837
      3 C         140.9112  138.4030  162.6465 C.ar    1  UNL1        0.1985
      4 N         142.0978  137.8609  161.9061 N.ar    1  UNL1       -0.2226
      5 C         141.9205  138.1777  160.4507 C.ar    1  UNL1        0.0993
      6 C         142.7719  137.8897  159.2499 C.ar    1  UNL1        0.0207
      7 C         142.3271  138.3395  157.8898 C.ar    1  UNL1        0.0021
      8 C         141.0308  139.0774  157.7307 C.ar    1  UNL1        0.0082
      9 C         140.1794  139.3654  158.9315 C.ar    1  UNL1        0.0518
     10 BR        138.8832  140.1033  158.7723 Br      1  UNL1       -0.0474
     11 C         140.6243  138.9156  160.2915 C.ar    1  UNL1        0.0853
     12 N         140.0005  139.0548  161.6486 N.ar    1  UNL1       -0.3056
     13 C         138.7209  139.6909  162.1045 C.3     1  UNL1        0.1291
     14 C         138.3519  139.6752  163.5584 C.3     1  UNL1        0.1186
     15 N         139.2626  139.0234  164.5563 N.am    1  UNL1       -0.2675
     16 C         138.8936  139.0076  166.0101 C.3     1  UNL1        0.1206
     17 C         139.3912  140.0898  166.9219 C.ar    1  UNL1       -0.0023
     18 C         140.0118  141.3284  166.3470 C.ar    1  UNL1       -0.0021
     19 C         140.5094  142.4107  167.2588 C.ar    1  UNL1        0.0064
     20 C         140.3863  142.2542  168.7455 C.ar    1  UNL1        0.0345
     21 BR        140.8838  143.3363  169.6573 Br      1  UNL1       -0.0490
     22 C         139.7656  141.0154  169.3205 C.ar    1  UNL1        0.0064
     23 C         139.2681  139.9333  168.4087 C.ar    1  UNL1       -0.0021
@<TRIPOS>BOND
     1     1     2    2
     2     2     3    1
     3     3     4   ar
     4     4     5   ar
     5     5     6   ar
     6     6     7   ar
     7     7     8   ar
     8     8     9   ar
     9     9    10    1
    10     9    11   ar
    11    11    12   ar
    12    12    13    1
    13    13    14    1
    14    14    15    1
    15    15    16    1
    16    16    17    1
    17    17    18   ar
    18    18    19   ar
    19    19    20   ar
    20    20    21    1
    21    20    22   ar
    22    22    23   ar
    23    15     2   am
    24    23    17   ar
    25    12     3   ar
    26    11     5   ar
@<TRIPOS>MOLECULE
*****
 23 26 0 0 0
SMALL
GASTEIGER

@<TRIPOS>ATOM
      1 O         137.3063  142.3188  162.6876 O.2     1  UNL1       -0.2666
      2 C         138.6108  141.8304  162.1310 C.2     1  UNL1        0.2837
      3 C         139.3500  142.6546  161.1189 C.ar    1  UNL1        0.1985
      4 N         139.0424  143.9788  160.4851 N.ar    1  UNL1       -0.2226
      5 C         140.1567  144.3089  159.5367 C.ar    1  UNL1        0.0993
      6 C         140.3929  145.4847  158.6359 C.ar    1  UNL1        0.0207
      7 C         141.6254  145.5403  157.7828 C.ar    1  UNL1        0.0021
      8 C         142.6218  144.4200  157.8306 C.ar    1  UNL1        0.0082
      9 C         142.3856  143.2442  158.7314 C.ar    1  UNL1        0.0518
     10 BR        143.3819  142.1239  158.7791 Br      1  UNL1       -0.0474
     11 C         141.1531  143.1886  159.5845 C.ar    1  UNL1        0.0853
     12 N         140.6544  142.1662  160.5623 N.ar    1  UNL1       -0.3056
     13 C         141.2197  140.8536  161.0178 C.3     1  UNL1        0.1291
     14 C         140.4805  140.0294  162.0299 C.3     1  UNL1        0.1186
     15 N         139.1761  140.5178  162.5865 N.am    1  UNL1       -0.2675
     16 C         138.4369  139.6936  163.5986 C.3     1  UNL1        0.1206
     17 C         138.7364  139.8540  165.0595 C.ar    1  UNL1       -0.0023
     18 C         138.0663  138.9647  166.0646 C.ar    1  UNL1       -0.0021
     19 C         138.3658  139.1251  167.5257 C.ar    1  UNL1        0.0064
     20 C         139.3355  140.1748  167.9816 C.ar    1  UNL1        0.0345
     21 BR        139.6350  140.3352  169.4426 Br      1  UNL1       -0.0490
     22 C         140.0056  141.0641  166.9765 C.ar    1  UNL1        0.0064
     23 C         139.7061  140.9037  165.5155 C.ar    1  UNL1       -0.0021
@<TRIPOS>BOND
     1     1     2    2
     2     2     3    1
     3     3     4   ar
     4     4     5   ar
     5     5     6   ar
     6     6     7   ar
     7     7     8   ar
     8     8     9   ar
     9     9    10    1
    10     9    11   ar
    11    11    12   ar
    12    12    13    1
    13    13    14    1
    14    14    15    1
    15    15    16    1
    16    16    17    1
    17    17    18   ar
    18    18    19   ar
    19    19    20   ar
    20    20    21    1
    21    20    22   ar
    22    22    23   ar
    23    15     2   am
    24    23    17   ar
    25    12     3   ar
    26    11     5   ar
@<TRIPOS>MOLECULE
*****
 23 26 0 0 0
SMALL
GASTEIGER

@<TRIPOS>ATOM
      1 O         143.1240  143.6401  159.6879 O.2     1  UNL1       -0.2666
      2 C         141.9972  144.1915  160.5102 C.2     1  UNL1        0.2837
      3 C         141.8088  143.7346  161.9265 C.ar    1  UNL1        0.1985
      4 N         142.5687  142.7597  162.7761 N.ar    1  UNL1       -0.2226
      5 C         141.9116  142.7086  164.1236 C.ar    1  UNL1        0.0993
      6 C         142.2245  141.9249  165.3637 C.ar    1  UNL1        0.0207
      7 C         141.3712  142.0846  166.5870 C.ar    1  UNL1        0.0021
      8 C         140.2051  143.0280  166.5701 C.ar    1  UNL1        0.0082
      9 C         139.8923  143.8117  165.3300 C.ar    1  UNL1        0.0518
     10 BR        138.7262  144.7550  165.3131 Br      1  UNL1       -0.0474
     11 C         140.7455  143.6520  164.1067 C.ar    1  UNL1        0.0853
     12 N         140.6820  144.2861  162.7488 N.ar    1  UNL1       -0.3056
     13 C         139.7436  145.2944  162.1549 C.3     1  UNL1        0.1291
     14 C         139.9321  145.7513  160.7386 C.3     1  UNL1        0.1186
     15 N         141.0588  145.1999  159.9163 N.am    1  UNL1       -0.2675
     16 C         141.2473  145.6567  158.5000 C.3     1  UNL1        0.1206
     17 C         140.2197  145.3202  157.4604 C.ar    1  UNL1       -0.0023
     18 C         139.7384  146.3777  156.5117 C.ar    1  UNL1       -0.0021
     19 C         138.7108  146.0412  155.4720 C.ar    1  UNL1        0.0064
     20 C         138.1645  144.6472  155.3811 C.ar    1  UNL1        0.0345
     21 BR        137.1370  144.3107  154.3414 Br      1  UNL1       -0.0490
     22 C         138.6459  143.5897  156.3298 C.ar    1  UNL1        0.0064
     23 C         139.6734  143.9262  157.3695 C.ar    1  UNL1       -0.0021
@<TRIPOS>BOND
     1     1     2    2
     2     2     3    1
     3     3     4   ar
     4     4     5   ar
     5     5     6   ar
     6     6     7   ar
     7     7     8   ar
     8     8     9   ar
     9     9    10    1
    10     9    11   ar
    11    11    12   ar
    12    12    13    1
    13    13    14    1
    14    14    15    1
    15    15    16    1
    16    16    17    1
    17    17    18   ar
    18    18    19   ar
    19    19    20   ar
    20    20    21    1
    21    20    22   ar
    22    22    23   ar
    23    15     2   am
    24    23    17   ar
    25    12     3   ar
    26    11     5   ar
@<TRIPOS>MOLECULE
*****
 23 26 0 0 0
SMALL
GASTEIGER

@<TRIPOS>ATOM
      1 O         138.6152  145.0327  164.5708 O.2     1  UNL1       -0.2666
      2 C         139.8047  144.2713  164.0655 C.2     1  UNL1        0.2837
      3 C         140.2294  144.4077  162.6334 C.ar    1  UNL1        0.1985
      4 N         139.6752  145.2108  161.4941 N.ar    1  UNL1       -0.2226
      5 C         140.5221  144.9457  160.2848 C.ar    1  UNL1        0.0993
      6 C         140.4512  145.4599  158.8775 C.ar    1  UNL1        0.0207
      7 C         141.4580  145.0071  157.8620 C.ar    1  UNL1        0.0021
      8 C         142.5358  144.0401  158.2539 C.ar    1  UNL1        0.0082
      9 C         142.6067  143.5260  159.6612 C.ar    1  UNL1        0.0518
     10 BR        143.6844  142.5590  160.0530 Br      1  UNL1       -0.0474
     11 C         141.5998  143.9787  160.6766 C.ar    1  UNL1        0.0853
     12 N         141.4189  143.6462  162.1281 N.ar    1  UNL1       -0.3056
     13 C         142.1837  142.7485  163.0550 C.3     1  UNL1        0.1291
     14 C         141.7589  142.6121  164.4871 C.3     1  UNL1        0.1186
     15 N         140.5694  143.3736  164.9924 N.am    1  UNL1       -0.2675
     16 C         140.1447  143.2372  166.4245 C.3     1  UNL1        0.1206
     17 C         140.7494  142.1700  167.2878 C.ar    1  UNL1       -0.0023
     18 C         142.0803  142.3984  167.9409 C.ar    1  UNL1       -0.0021
     19 C         142.6851  141.3311  168.8043 C.ar    1  UNL1        0.0064
     20 C         141.9589  140.0355  169.0145 C.ar    1  UNL1        0.0345
     21 BR        142.5637  138.9683  169.8778 Br      1  UNL1       -0.0490
     22 C         140.6280  139.8072  168.3613 C.ar    1  UNL1        0.0064
     23 C         140.0232  140.8744  167.4980 C.ar    1  UNL1       -0.0021
@<TRIPOS>BOND
     1     1     2    2
     2     2     3    1
     3     3     4   ar
     4     4     5   ar
     5     5     6   ar
     6     6     7   ar
     7     7     8   ar
     8     8     9   ar
     9     9    10    1
    10     9    11   ar
    11    11    12   ar
    12    12    13    1
    13    13    14    1
    14    14    15    1
    15    15    16    1
    16    16    17    1
    17    17    18   ar
    18    18    19   ar
    19    19    20   ar
    20    20    21    1
    21    20    22   ar
    22    22    23   ar
    23    15     2   am
    24    23    17   ar
    25    12     3   ar
    26    11     5   ar
@<TRIPOS>MOLECULE
*****
 23 26 0 0 0
SMALL
GASTEIGER

@<TRIPOS>ATOM
      1 O         140.7936  139.0031  163.4114 O.2     1  UNL1       -0.2666
      2 C         140.3763  140.4401  163.5159 C.2     1  UNL1        0.2837
      3 C         140.6866  141.3943  162.4009 C.ar    1  UNL1        0.1985
      4 N         141.3855  141.2090  161.0866 N.ar    1  UNL1       -0.2226
      5 C         141.4002  142.5315  160.3789 C.ar    1  UNL1        0.0993
      6 C         141.9526  142.9523  159.0493 C.ar    1  UNL1        0.0207
      7 C         141.8151  144.3757  158.5966 C.ar    1  UNL1        0.0021
      8 C         141.1253  145.3783  159.4735 C.ar    1  UNL1        0.0082
      9 C         140.5729  144.9575  160.8031 C.ar    1  UNL1        0.0518
     10 BR        139.8831  145.9602  161.6799 Br      1  UNL1       -0.0474
     11 C         140.7104  143.5341  161.2558 C.ar    1  UNL1        0.0853
     12 N         140.2694  142.8313  162.5054 N.ar    1  UNL1       -0.3056
     13 C         139.5418  143.3141  163.7250 C.3     1  UNL1        0.1291
     14 C         139.2314  142.3600  164.8400 C.3     1  UNL1        0.1186
     15 N         139.6487  140.9230  164.7355 N.am    1  UNL1       -0.2675
     16 C         139.3383  139.9689  165.8506 C.3     1  UNL1        0.1206
     17 C         140.2246  139.9143  167.0595 C.ar    1  UNL1       -0.0023
     18 C         139.6371  140.0887  168.4286 C.ar    1  UNL1       -0.0021
     19 C         140.5234  140.0342  169.6376 C.ar    1  UNL1        0.0064
     20 C         141.9972  139.8052  169.4774 C.ar    1  UNL1        0.0345
     21 BR        142.8834  139.7507  170.6864 Br      1  UNL1       -0.0490
     22 C         142.5846  139.6308  168.1082 C.ar    1  UNL1        0.0064
     23 C         141.6984  139.6854  166.8993 C.ar    1  UNL1       -0.0021
@<TRIPOS>BOND
     1     1     2    2
     2     2     3    1
     3     3     4   ar
     4     4     5   ar
     5     5     6   ar
     6     6     7   ar
     7     7     8   ar
     8     8     9   ar
     9     9    10    1
    10     9    11   ar
    11    11    12   ar
    12    12    13    1
    13    13    14    1
    14    14    15    1
    15    15    16    1
    16    16    17    1
    17    17    18   ar
    18    18    19   ar
    19    19    20   ar
    20    20    21    1
    21    20    22   ar
    22    22    23   ar
    23    15     2   am
    24    23    17   ar
    25    12     3   ar
    26    11     5   ar
