@<TRIPOS>MOLECULE
*****
 32 36 0 0 0
SMALL
GASTEIGER

@<TRIPOS>ATOM
      1 N         141.6840  142.1570  165.1308 N.ar    1  UNL1       -0.2753
      2 C         140.8995  141.1501  164.3429 C.ar    1  UNL1        0.1497
      3 N         141.1137  141.4330  162.8855 N.ar    1  UNL1       -0.2220
      4 C         142.0306  142.6148  162.7727 C.ar    1  UNL1        0.1497
      5 C         142.5902  143.3414  161.5856 C.ar    1  UNL1        0.1643
      6 N         143.5021  144.5152  161.7862 N.ar    1  UNL1       -0.2063
      7 C         143.8546  144.9626  163.1739 C.ar    1  UNL1        0.2015
      8 N         143.2950  144.2361  164.3609 N.ar    1  UNL1       -0.2045
      9 C         142.3831  143.0622  164.1603 C.ar    1  UNL1        0.1711
     10 C         140.0499  140.0528  164.9125 C.ar    1  UNL1        0.0451
     11 C         138.7689  140.3857  165.6182 C.ar    1  UNL1        0.0047
     12 C         137.9193  139.2885  166.1877 C.ar    1  UNL1        0.0115
     13 C         138.3509  137.8584  166.0515 C.ar    1  UNL1        0.0585
     14 CL        137.5013  136.7612  166.6211 Cl      1  UNL1       -0.0822
     15 C         139.6319  137.5255  165.3458 C.ar    1  UNL1        0.0229
     16 C         140.4814  138.6227  164.7763 C.ar    1  UNL1        0.0614
     17 CL        141.7625  138.2898  164.0705 Cl      1  UNL1       -0.0821
     18 CL        141.9747  142.5028  171.1138 Cl      1  UNL1       -0.0822
     19 C         141.9021  142.4163  169.6180 C.ar    1  UNL1        0.0578
     20 C         140.6707  142.8815  168.8988 C.ar    1  UNL1        0.0129
     21 C         140.5980  142.7950  167.4031 C.ar    1  UNL1        0.0185
     22 C         141.7567  142.2434  166.6265 C.ar    1  UNL1        0.0668
     23 C         142.9881  141.7782  167.3457 C.ar    1  UNL1        0.0185
     24 C         143.0607  141.8647  168.8414 C.ar    1  UNL1        0.0129
     25 N         142.2377  142.8939  160.1979 N.pl3   1  UNL1       -0.2591
     26 H         142.2609  141.9368  159.9685 H       1  UNL1        0.1680
     27 N         141.8498  143.9048  159.1598 N.3     1  UNL1       -0.2069
     28 C         140.6652  144.7964  159.3870 C.3     1  UNL1        0.0918
     29 C         140.2773  145.8073  158.3489 C.3     1  UNL1        0.0191
     30 C         141.0740  145.9266  157.0836 C.3     1  UNL1        0.0030
     31 C         142.2587  145.0349  156.8564 C.3     1  UNL1        0.0191
     32 C         142.6466  144.0240  157.8945 C.3     1  UNL1        0.0918
@<TRIPOS>BOND
     1    18    19    1
     2    19    20   ar
     3    20    21   ar
     4    21    22   ar
     5    22     1    1
     6     1     2   ar
     7     2    10    1
     8    10    11   ar
     9    11    12   ar
    10    12    13   ar
    11    13    14    1
    12    13    15   ar
    13    15    16   ar
    14    16    17    1
    15     2     3   ar
    16     3     4   ar
    17     4     5   ar
    18     5    25    1
    19    25    27    1
    20    27    28    1
    21    28    29    1
    22    29    30    1
    23    30    31    1
    24    31    32    1
    25     5     6   ar
    26     6     7   ar
    27     7     8   ar
    28     8     9   ar
    29    22    23   ar
    30    23    24   ar
    31    24    19   ar
    32     9     1   ar
    33    16    10   ar
    34     9     4   ar
    35    32    27    1
    36    25    26    1
@<TRIPOS>MOLECULE
*****
 32 36 0 0 0
SMALL
GASTEIGER

@<TRIPOS>ATOM
      1 N         139.0112  141.7386  159.8945 N.ar    1  UNL1       -0.2753
      2 C         138.3767  140.4314  160.2672 C.ar    1  UNL1        0.1497
      3 N         137.5242  139.9852  159.1165 N.ar    1  UNL1       -0.2220
      4 C         137.6318  141.0167  158.0326 C.ar    1  UNL1        0.1497
      5 C         137.0116  141.1091  156.6700 C.ar    1  UNL1        0.1643
      6 N         137.3105  142.2851  155.7881 N.ar    1  UNL1       -0.2063
      7 C         138.2295  143.3687  156.2690 C.ar    1  UNL1        0.2015
      8 N         138.8497  143.2762  157.6316 N.ar    1  UNL1       -0.2045
      9 C         138.5508  142.1002  158.5135 C.ar    1  UNL1        0.1711
     10 C         138.5622  139.6991  161.5631 C.ar    1  UNL1        0.0451
     11 C         139.3143  138.4015  161.5903 C.ar    1  UNL1        0.0047
     12 C         139.4997  137.6693  162.8862 C.ar    1  UNL1        0.0115
     13 C         138.9332  138.2345  164.1548 C.ar    1  UNL1        0.0585
     14 CL        139.1187  137.5022  165.4508 Cl      1  UNL1       -0.0822
     15 C         138.1811  139.5321  164.1276 C.ar    1  UNL1        0.0229
     16 C         137.9956  140.2643  162.8318 C.ar    1  UNL1        0.0614
     17 CL        137.2436  141.5619  162.8045 Cl      1  UNL1       -0.0821
     18 CL        142.7367  144.9556  163.3254 Cl      1  UNL1       -0.0822
     19 C         141.8054  144.1513  162.4677 C.ar    1  UNL1        0.0578
     20 C         140.4820  144.7247  162.0555 C.ar    1  UNL1        0.0129
     21 C         139.5506  143.9204  161.1978 C.ar    1  UNL1        0.0185
     22 C         139.9425  142.5428  160.7522 C.ar    1  UNL1        0.0668
     23 C         141.2659  141.9695  161.1644 C.ar    1  UNL1        0.0185
     24 C         142.1973  142.7737  162.0221 C.ar    1  UNL1        0.0129
     25 N         136.0926  140.0255  156.1892 N.pl3   1  UNL1       -0.2591
     26 H         136.4648  139.1909  155.8227 H       1  UNL1        0.1680
     27 N         134.6064  140.2133  156.2667 N.3     1  UNL1       -0.2069
     28 C         133.9162  141.1375  155.3078 C.3     1  UNL1        0.0918
     29 C         132.4300  141.3254  155.3853 C.3     1  UNL1        0.0191
     30 C         131.6341  140.5891  156.4217 C.3     1  UNL1        0.0030
     31 C         132.3242  139.6649  157.3807 C.3     1  UNL1        0.0191
     32 C         133.8104  139.4770  157.3032 C.3     1  UNL1        0.0918
@<TRIPOS>BOND
     1    18    19    1
     2    19    20   ar
     3    20    21   ar
     4    21    22   ar
     5    22     1    1
     6     1     2   ar
     7     2    10    1
     8    10    11   ar
     9    11    12   ar
    10    12    13   ar
    11    13    14    1
    12    13    15   ar
    13    15    16   ar
    14    16    17    1
    15     2     3   ar
    16     3     4   ar
    17     4     5   ar
    18     5    25    1
    19    25    27    1
    20    27    28    1
    21    28    29    1
    22    29    30    1
    23    30    31    1
    24    31    32    1
    25     5     6   ar
    26     6     7   ar
    27     7     8   ar
    28     8     9   ar
    29    22    23   ar
    30    23    24   ar
    31    24    19   ar
    32     9     1   ar
    33    16    10   ar
    34     9     4   ar
    35    32    27    1
    36    25    26    1
@<TRIPOS>MOLECULE
*****
 32 36 0 0 0
SMALL
GASTEIGER

@<TRIPOS>ATOM
      1 N         142.8225  139.5587  160.3994 N.ar    1  UNL1       -0.2753
      2 C         141.7191  138.5490  160.5140 C.ar    1  UNL1        0.1497
      3 N         141.5446  137.8989  159.1735 N.ar    1  UNL1       -0.2220
      4 C         142.5402  138.5068  158.2304 C.ar    1  UNL1        0.1497
      5 C         142.8297  138.2587  156.7797 C.ar    1  UNL1        0.1643
      6 N         143.9088  139.0364  156.0865 N.ar    1  UNL1       -0.2063
      7 C         144.6986  140.0622  156.8442 C.ar    1  UNL1        0.2015
      8 N         144.4092  140.3103  158.2949 N.ar    1  UNL1       -0.2045
      9 C         143.3300  139.5326  158.9881 C.ar    1  UNL1        0.1711
     10 C         140.9289  138.2433  161.7518 C.ar    1  UNL1        0.0451
     11 C         141.6062  137.6306  162.9417 C.ar    1  UNL1        0.0047
     12 C         140.8160  137.3248  164.1794 C.ar    1  UNL1        0.0115
     13 C         139.3485  137.6317  164.2273 C.ar    1  UNL1        0.0585
     14 CL        138.5583  137.3260  165.4652 Cl      1  UNL1       -0.0822
     15 C         138.6712  138.2444  163.0374 C.ar    1  UNL1        0.0229
     16 C         139.4614  138.5502  161.7997 C.ar    1  UNL1        0.0614
     17 CL        138.7841  139.1629  160.6097 Cl      1  UNL1       -0.0821
     18 CL        144.8504  143.0830  164.8115 Cl      1  UNL1       -0.0822
     19 C         144.3435  142.2020  163.7085 C.ar    1  UNL1        0.0578
     20 C         143.2011  142.6575  162.8497 C.ar    1  UNL1        0.0129
     21 C         142.6941  141.7764  161.7467 C.ar    1  UNL1        0.0185
     22 C         143.3295  140.4398  161.5024 C.ar    1  UNL1        0.0668
     23 C         144.4719  139.9843  162.3611 C.ar    1  UNL1        0.0185
     24 C         144.9788  140.8653  163.4642 C.ar    1  UNL1        0.0129
     25 N         142.0398  137.2329  156.0221 N.pl3   1  UNL1       -0.2591
     26 H         141.3367  137.5178  155.3947 H       1  UNL1        0.1680
     27 N         142.3214  135.7730  156.2204 N.3     1  UNL1       -0.2069
     28 C         143.3547  135.3370  157.2165 C.3     1  UNL1        0.0918
     29 C         143.6363  133.8770  157.4148 C.3     1  UNL1        0.0191
     30 C         142.8846  132.8531  156.6170 C.3     1  UNL1        0.0030
     31 C         141.8512  133.2891  155.6209 C.3     1  UNL1        0.0191
     32 C         141.5697  134.7490  155.4225 C.3     1  UNL1        0.0918
@<TRIPOS>BOND
     1    18    19    1
     2    19    20   ar
     3    20    21   ar
     4    21    22   ar
     5    22     1    1
     6     1     2   ar
     7     2    10    1
     8    10    11   ar
     9    11    12   ar
    10    12    13   ar
    11    13    14    1
    12    13    15   ar
    13    15    16   ar
    14    16    17    1
    15     2     3   ar
    16     3     4   ar
    17     4     5   ar
    18     5    25    1
    19    25    27    1
    20    27    28    1
    21    28    29    1
    22    29    30    1
    23    30    31    1
    24    31    32    1
    25     5     6   ar
    26     6     7   ar
    27     7     8   ar
    28     8     9   ar
    29    22    23   ar
    30    23    24   ar
    31    24    19   ar
    32     9     1   ar
    33    16    10   ar
    34     9     4   ar
    35    32    27    1
    36    25    26    1
@<TRIPOS>MOLECULE
*****
 32 36 0 0 0
SMALL
GASTEIGER

@<TRIPOS>ATOM
      1 N         141.1557  139.4629  160.2778 N.ar    1  UNL1       -0.2753
      2 C         142.1784  138.5867  160.9383 C.ar    1  UNL1        0.1497
      3 N         142.8231  137.7456  159.8768 N.ar    1  UNL1       -0.2220
      4 C         142.1988  138.1020  158.5602 C.ar    1  UNL1        0.1497
      5 C         142.4356  137.5972  157.1677 C.ar    1  UNL1        0.1643
      6 N         141.6419  138.1537  156.0231 N.ar    1  UNL1       -0.2063
      7 C         140.6114  139.2151  156.2709 C.ar    1  UNL1        0.2015
      8 N         140.3746  139.7199  157.6634 N.ar    1  UNL1       -0.2045
      9 C         141.1683  139.1634  158.8081 C.ar    1  UNL1        0.1711
     10 C         142.5000  138.5569  162.4032 C.ar    1  UNL1        0.0451
     11 C         143.7857  139.1476  162.9010 C.ar    1  UNL1        0.0047
     12 C         144.1072  139.1178  164.3658 C.ar    1  UNL1        0.0115
     13 C         143.1429  138.4971  165.3328 C.ar    1  UNL1        0.0585
     14 CL        143.4645  138.4673  166.7976 Cl      1  UNL1       -0.0822
     15 C         141.8572  137.9063  164.8349 C.ar    1  UNL1        0.0229
     16 C         141.5357  137.9362  163.3701 C.ar    1  UNL1        0.0614
     17 CL        140.2500  137.3454  162.8722 Cl      1  UNL1       -0.0821
     18 CL        137.6327  143.4639  163.0313 Cl      1  UNL1       -0.0822
     19 C         138.5135  142.4637  162.3429 C.ar    1  UNL1        0.0578
     20 C         137.9269  141.1915  161.8066 C.ar    1  UNL1        0.0129
     21 C         138.8077  140.1913  161.1182 C.ar    1  UNL1        0.0185
     22 C         140.2750  140.4632  160.9661 C.ar    1  UNL1        0.0668
     23 C         140.8615  141.7353  161.5025 C.ar    1  UNL1        0.0185
     24 C         139.9808  142.7355  162.1909 C.ar    1  UNL1        0.0129
     25 N         143.4662  136.5358  156.9198 N.pl3   1  UNL1       -0.2591
     26 H         144.4236  136.7638  156.9447 H       1  UNL1        0.1680
     27 N         143.0380  135.1268  156.6342 N.3     1  UNL1       -0.2069
     28 C         141.9205  134.8637  155.6689 C.3     1  UNL1        0.0918
     29 C         141.4923  133.4548  155.3832 C.3     1  UNL1        0.0191
     30 C         142.1817  132.3090  156.0628 C.3     1  UNL1        0.0030
     31 C         143.2993  132.5721  157.0281 C.3     1  UNL1        0.0191
     32 C         143.7275  133.9810  157.3138 C.3     1  UNL1        0.0918
@<TRIPOS>BOND
     1    18    19    1
     2    19    20   ar
     3    20    21   ar
     4    21    22   ar
     5    22     1    1
     6     1     2   ar
     7     2    10    1
     8    10    11   ar
     9    11    12   ar
    10    12    13   ar
    11    13    14    1
    12    13    15   ar
    13    15    16   ar
    14    16    17    1
    15     2     3   ar
    16     3     4   ar
    17     4     5   ar
    18     5    25    1
    19    25    27    1
    20    27    28    1
    21    28    29    1
    22    29    30    1
    23    30    31    1
    24    31    32    1
    25     5     6   ar
    26     6     7   ar
    27     7     8   ar
    28     8     9   ar
    29    22    23   ar
    30    23    24   ar
    31    24    19   ar
    32     9     1   ar
    33    16    10   ar
    34     9     4   ar
    35    32    27    1
    36    25    26    1
@<TRIPOS>MOLECULE
*****
 32 36 0 0 0
SMALL
GASTEIGER

@<TRIPOS>ATOM
      1 N         142.2131  140.1405  161.5365 N.ar    1  UNL1       -0.2753
      2 C         140.9948  139.2826  161.7090 C.ar    1  UNL1        0.1497
      3 N         140.7462  138.5650  160.4155 N.ar    1  UNL1       -0.2220
      4 C         141.8110  138.9795  159.4435 C.ar    1  UNL1        0.1497
      5 C         142.0721  138.5960  158.0170 C.ar    1  UNL1        0.1643
      6 N         143.2397  139.1862  157.2834 N.ar    1  UNL1       -0.2063
      7 C         144.1462  140.1599  157.9762 C.ar    1  UNL1        0.2015
      8 N         143.8851  140.5434  159.4027 N.ar    1  UNL1       -0.2045
      9 C         142.7175  139.9532  160.1363 C.ar    1  UNL1        0.1711
     10 C         140.1699  139.1633  162.9562 C.ar    1  UNL1        0.0451
     11 C         139.1927  140.2432  163.3153 C.ar    1  UNL1        0.0047
     12 C         138.3679  140.1238  164.5624 C.ar    1  UNL1        0.0115
     13 C         138.5202  138.9245  165.4504 C.ar    1  UNL1        0.0585
     14 CL        137.6953  138.8052  166.6976 Cl      1  UNL1       -0.0822
     15 C         139.4973  137.8446  165.0913 C.ar    1  UNL1        0.0229
     16 C         140.3222  137.9640  163.8442 C.ar    1  UNL1        0.0614
     17 CL        141.2994  136.8841  163.4850 Cl      1  UNL1       -0.0821
     18 CL        144.6423  143.6973  165.7136 Cl      1  UNL1       -0.0822
     19 C         144.0350  142.8081  164.6694 C.ar    1  UNL1        0.0578
     20 C         144.6351  141.4623  164.3890 C.ar    1  UNL1        0.0129
     21 C         144.0278  140.5731  163.3447 C.ar    1  UNL1        0.0185
     22 C         142.8204  141.0297  162.5807 C.ar    1  UNL1        0.0668
     23 C         142.2202  142.3755  162.8611 C.ar    1  UNL1        0.0185
     24 C         142.8275  143.2647  163.9054 C.ar    1  UNL1        0.0129
     25 N         141.1654  137.6222  157.3242 N.pl3   1  UNL1       -0.2591
     26 H         140.1887  137.7285  157.3872 H       1  UNL1        0.1680
     27 N         141.7470  136.4866  156.5354 N.3     1  UNL1       -0.2069
     28 C         142.9954  135.8047  157.0113 C.3     1  UNL1        0.0918
     29 C         143.5770  134.6691  156.2226 C.3     1  UNL1        0.0191
     30 C         142.9102  134.2154  154.9579 C.3     1  UNL1        0.0030
     31 C         141.6618  134.8973  154.4819 C.3     1  UNL1        0.0191
     32 C         141.0802  136.0329  155.2707 C.3     1  UNL1        0.0918
@<TRIPOS>BOND
     1    18    19    1
     2    19    20   ar
     3    20    21   ar
     4    21    22   ar
     5    22     1    1
     6     1     2   ar
     7     2    10    1
     8    10    11   ar
     9    11    12   ar
    10    12    13   ar
    11    13    14    1
    12    13    15   ar
    13    15    16   ar
    14    16    17    1
    15     2     3   ar
    16     3     4   ar
    17     4     5   ar
    18     5    25    1
    19    25    27    1
    20    27    28    1
    21    28    29    1
    22    29    30    1
    23    30    31    1
    24    31    32    1
    25     5     6   ar
    26     6     7   ar
    27     7     8   ar
    28     8     9   ar
    29    22    23   ar
    30    23    24   ar
    31    24    19   ar
    32     9     1   ar
    33    16    10   ar
    34     9     4   ar
    35    32    27    1
    36    25    26    1
@<TRIPOS>MOLECULE
*****
 32 36 0 0 0
SMALL
GASTEIGER

@<TRIPOS>ATOM
      1 N         139.0288  140.8616  160.3073 N.ar    1  UNL1       -0.2753
      2 C         138.6023  142.2806  160.5406 C.ar    1  UNL1        0.1497
      3 N         138.2075  142.8693  159.2186 N.ar    1  UNL1       -0.2220
      4 C         138.3900  141.8140  158.1683 C.ar    1  UNL1        0.1497
      5 C         138.1596  141.8227  156.6861 C.ar    1  UNL1        0.1643
      6 N         138.4367  140.5906  155.8768 N.ar    1  UNL1       -0.2063
      7 C         138.9442  139.3498  156.5496 C.ar    1  UNL1        0.2015
      8 N         139.1747  139.3411  158.0318 N.ar    1  UNL1       -0.2045
      9 C         138.8976  140.5732  158.8411 C.ar    1  UNL1        0.1711
     10 C         138.5754  142.9870  161.8636 C.ar    1  UNL1        0.0451
     11 C         137.6127  142.5500  162.9277 C.ar    1  UNL1        0.0047
     12 C         137.5858  143.2564  164.2506 C.ar    1  UNL1        0.0115
     13 C         138.5216  144.3997  164.5096 C.ar    1  UNL1        0.0585
     14 CL        138.4946  145.1061  165.8326 Cl      1  UNL1       -0.0822
     15 C         139.4843  144.8367  163.4455 C.ar    1  UNL1        0.0229
     16 C         139.5112  144.1304  162.1226 C.ar    1  UNL1        0.0614
     17 CL        140.4739  144.5674  161.0584 Cl      1  UNL1       -0.0821
     18 CL        140.9264  137.0142  164.5022 Cl      1  UNL1       -0.0822
     19 C         140.4520  137.9760  163.4534 C.ar    1  UNL1        0.0578
     20 C         141.3332  139.1110  163.0231 C.ar    1  UNL1        0.0129
     21 C         140.8588  140.0729  161.9743 C.ar    1  UNL1        0.0185
     22 C         139.5032  139.8998  161.3560 C.ar    1  UNL1        0.0668
     23 C         138.6220  138.7647  161.7864 C.ar    1  UNL1        0.0185
     24 C         139.0964  137.8029  162.8351 C.ar    1  UNL1        0.0129
     25 N         137.6520  143.0636  156.0133 N.pl3   1  UNL1       -0.2591
     26 H         136.7109  143.1199  155.7296 H       1  UNL1        0.1680
     27 N         138.5783  144.2186  155.7727 N.3     1  UNL1       -0.2069
     28 C         138.0369  145.5197  155.2587 C.3     1  UNL1        0.0918
     29 C         138.9632  146.6747  155.0181 C.3     1  UNL1        0.0191
     30 C         140.4308  146.5287  155.2914 C.3     1  UNL1        0.0030
     31 C         140.9722  145.2276  155.8054 C.3     1  UNL1        0.0191
     32 C         140.0459  144.0726  156.0460 C.3     1  UNL1        0.0918
@<TRIPOS>BOND
     1    18    19    1
     2    19    20   ar
     3    20    21   ar
     4    21    22   ar
     5    22     1    1
     6     1     2   ar
     7     2    10    1
     8    10    11   ar
     9    11    12   ar
    10    12    13   ar
    11    13    14    1
    12    13    15   ar
    13    15    16   ar
    14    16    17    1
    15     2     3   ar
    16     3     4   ar
    17     4     5   ar
    18     5    25    1
    19    25    27    1
    20    27    28    1
    21    28    29    1
    22    29    30    1
    23    30    31    1
    24    31    32    1
    25     5     6   ar
    26     6     7   ar
    27     7     8   ar
    28     8     9   ar
    29    22    23   ar
    30    23    24   ar
    31    24    19   ar
    32     9     1   ar
    33    16    10   ar
    34     9     4   ar
    35    32    27    1
    36    25    26    1
@<TRIPOS>MOLECULE
*****
 32 36 0 0 0
SMALL
GASTEIGER

@<TRIPOS>ATOM
      1 N         139.8653  140.3767  161.1755 N.ar    1  UNL1       -0.2753
      2 C         140.7776  139.2142  161.4336 C.ar    1  UNL1        0.1497
      3 N         140.8078  138.3654  160.1973 N.ar    1  UNL1       -0.2220
      4 C         139.9142  139.0032  159.1751 C.ar    1  UNL1        0.1497
      5 C         139.5557  138.6127  157.7719 C.ar    1  UNL1        0.1643
      6 N         138.6148  139.4652  156.9733 N.ar    1  UNL1       -0.2063
      7 C         138.0324  140.7083  157.5779 C.ar    1  UNL1        0.2015
      8 N         138.3909  141.0988  158.9811 N.ar    1  UNL1       -0.2045
      9 C         139.3318  140.2463  159.7797 C.ar    1  UNL1        0.1711
     10 C         141.5278  138.9475  162.7048 C.ar    1  UNL1        0.0451
     11 C         142.9360  139.4398  162.8620 C.ar    1  UNL1        0.0047
     12 C         143.6861  139.1730  164.1333 C.ar    1  UNL1        0.0115
     13 C         143.0282  138.4141  165.2473 C.ar    1  UNL1        0.0585
     14 CL        143.7784  138.1474  166.5185 Cl      1  UNL1       -0.0822
     15 C         141.6200  137.9218  165.0901 C.ar    1  UNL1        0.0229
     16 C         140.8698  138.1886  163.8189 C.ar    1  UNL1        0.0614
     17 CL        139.4616  137.6963  163.6616 Cl      1  UNL1       -0.0821
     18 CL        138.5769  144.7760  165.0467 Cl      1  UNL1       -0.0822
     19 C         138.8991  143.6762  164.0789 C.ar    1  UNL1        0.0578
     20 C         137.8900  142.6014  163.8021 C.ar    1  UNL1        0.0129
     21 C         138.2121  141.5016  162.8343 C.ar    1  UNL1        0.0185
     22 C         139.5432  141.4765  162.1433 C.ar    1  UNL1        0.0668
     23 C         140.5522  142.5513  162.4201 C.ar    1  UNL1        0.0185
     24 C         140.2301  143.6512  163.3879 C.ar    1  UNL1        0.0129
     25 N         140.1382  137.3696  157.1673 N.pl3   1  UNL1       -0.2591
     26 H         139.6121  136.5376  157.1497 H       1  UNL1        0.1680
     27 N         141.5223  137.3941  156.5896 N.3     1  UNL1       -0.2069
     28 C         142.2955  136.1175  156.4407 C.3     1  UNL1        0.0918
     29 C         143.6796  136.1420  155.8629 C.3     1  UNL1        0.0191
     30 C         144.2904  137.4431  155.4341 C.3     1  UNL1        0.0030
     31 C         143.5171  138.7199  155.5830 C.3     1  UNL1        0.0191
     32 C         142.1330  138.6953  156.1607 C.3     1  UNL1        0.0918
@<TRIPOS>BOND
     1    18    19    1
     2    19    20   ar
     3    20    21   ar
     4    21    22   ar
     5    22     1    1
     6     1     2   ar
     7     2    10    1
     8    10    11   ar
     9    11    12   ar
    10    12    13   ar
    11    13    14    1
    12    13    15   ar
    13    15    16   ar
    14    16    17    1
    15     2     3   ar
    16     3     4   ar
    17     4     5   ar
    18     5    25    1
    19    25    27    1
    20    27    28    1
    21    28    29    1
    22    29    30    1
    23    30    31    1
    24    31    32    1
    25     5     6   ar
    26     6     7   ar
    27     7     8   ar
    28     8     9   ar
    29    22    23   ar
    30    23    24   ar
    31    24    19   ar
    32     9     1   ar
    33    16    10   ar
    34     9     4   ar
    35    32    27    1
    36    25    26    1
@<TRIPOS>MOLECULE
*****
 32 36 0 0 0
SMALL
GASTEIGER

@<TRIPOS>ATOM
      1 N         142.5667  142.1280  161.1800 N.ar    1  UNL1       -0.2753
      2 C         143.3975  140.9091  161.4520 C.ar    1  UNL1        0.1497
      3 N         144.1231  140.5513  160.1888 N.ar    1  UNL1       -0.2220
      4 C         143.7406  141.5492  159.1361 C.ar    1  UNL1        0.1497
      5 C         144.1441  141.6964  157.6989 C.ar    1  UNL1        0.1643
      6 N         143.5856  142.8180  156.8743 N.ar    1  UNL1       -0.2063
      7 C         142.6237  143.7924  157.4868 C.ar    1  UNL1        0.2015
      8 N         142.2203  143.6452  158.9240 N.ar    1  UNL1       -0.2045
      9 C         142.7788  142.5236  159.7487 C.ar    1  UNL1        0.1711
     10 C         143.4870  140.1765  162.7579 C.ar    1  UNL1        0.0451
     11 C         142.4311  139.1791  163.1323 C.ar    1  UNL1        0.0047
     12 C         142.5206  138.4467  164.4382 C.ar    1  UNL1        0.0115
     13 C         143.6661  138.7116  165.3697 C.ar    1  UNL1        0.0585
     14 CL        143.7556  137.9790  166.6757 Cl      1  UNL1       -0.0822
     15 C         144.7220  139.7089  164.9953 C.ar    1  UNL1        0.0229
     16 C         144.6325  140.4414  163.6895 C.ar    1  UNL1        0.0614
     17 CL        145.6884  141.4389  163.3150 Cl      1  UNL1       -0.0821
     18 CL        139.0181  144.9297  165.1244 Cl      1  UNL1       -0.0822
     19 C         139.9053  144.2293  164.1383 C.ar    1  UNL1        0.0578
     20 C         139.3887  143.0480  163.3717 C.ar    1  UNL1        0.0129
     21 C         140.2758  142.3476  162.3856 C.ar    1  UNL1        0.0185
     22 C         141.6796  142.8284  162.1661 C.ar    1  UNL1        0.0668
     23 C         142.1962  144.0097  162.9327 C.ar    1  UNL1        0.0185
     24 C         141.3090  144.7101  163.9188 C.ar    1  UNL1        0.0129
     25 N         145.1060  140.7219  157.0864 N.pl3   1  UNL1       -0.2591
     26 H         145.1825  139.8106  157.4509 H       1  UNL1        0.1680
     27 N         145.9512  141.1359  155.9184 N.3     1  UNL1       -0.2069
     28 C         145.6305  140.6292  154.5435 C.3     1  UNL1        0.0918
     29 C         146.4758  141.0433  153.3755 C.3     1  UNL1        0.0191
     30 C         147.6416  141.9640  153.5825 C.3     1  UNL1        0.0030
     31 C         147.9624  142.4708  154.9574 C.3     1  UNL1        0.0191
     32 C         147.1171  142.0567  156.1254 C.3     1  UNL1        0.0918
@<TRIPOS>BOND
     1    18    19    1
     2    19    20   ar
     3    20    21   ar
     4    21    22   ar
     5    22     1    1
     6     1     2   ar
     7     2    10    1
     8    10    11   ar
     9    11    12   ar
    10    12    13   ar
    11    13    14    1
    12    13    15   ar
    13    15    16   ar
    14    16    17    1
    15     2     3   ar
    16     3     4   ar
    17     4     5   ar
    18     5    25    1
    19    25    27    1
    20    27    28    1
    21    28    29    1
    22    29    30    1
    23    30    31    1
    24    31    32    1
    25     5     6   ar
    26     6     7   ar
    27     7     8   ar
    28     8     9   ar
    29    22    23   ar
    30    23    24   ar
    31    24    19   ar
    32     9     1   ar
    33    16    10   ar
    34     9     4   ar
    35    32    27    1
    36    25    26    1
@<TRIPOS>MOLECULE
*****
 32 36 0 0 0
SMALL
GASTEIGER

@<TRIPOS>ATOM
      1 N         141.6945  144.0435  160.3185 N.ar    1  UNL1       -0.2753
      2 C         142.8611  143.1171  160.1427 C.ar    1  UNL1        0.1497
      3 N         143.3155  143.2096  158.7162 N.ar    1  UNL1       -0.2220
      4 C         142.4298  144.1931  158.0104 C.ar    1  UNL1        0.1497
      5 C         142.4061  144.6860  156.5939 C.ar    1  UNL1        0.1643
      6 N         141.3806  145.6942  156.1676 N.ar    1  UNL1       -0.2063
      7 C         140.3788  146.2096  157.1579 C.ar    1  UNL1        0.2015
      8 N         140.4025  145.7168  158.5744 N.ar    1  UNL1       -0.2045
      9 C         141.4279  144.7085  159.0007 C.ar    1  UNL1        0.1711
     10 C         143.4668  142.2504  161.2067 C.ar    1  UNL1        0.0451
     11 C         144.7711  142.6386  161.8377 C.ar    1  UNL1        0.0047
     12 C         145.3768  141.7719  162.9017 C.ar    1  UNL1        0.0115
     13 C         144.6782  140.5171  163.3345 C.ar    1  UNL1        0.0585
     14 CL        145.2840  139.6504  164.3985 Cl      1  UNL1       -0.0822
     15 C         143.3740  140.1289  162.7035 C.ar    1  UNL1        0.0229
     16 C         142.7683  140.9956  161.6396 C.ar    1  UNL1        0.0614
     17 CL        141.4640  140.6074  161.0085 Cl      1  UNL1       -0.0821
     18 CL        138.6320  144.9331  165.4008 Cl      1  UNL1       -0.0822
     19 C         139.3976  144.7107  164.1303 C.ar    1  UNL1        0.0578
     20 C         138.6931  144.1949  162.9106 C.ar    1  UNL1        0.0129
     21 C         139.4588  143.9725  161.6400 C.ar    1  UNL1        0.0185
     22 C         140.9289  144.2659  161.5891 C.ar    1  UNL1        0.0668
     23 C         141.6334  144.7817  162.8088 C.ar    1  UNL1        0.0185
     24 C         140.8677  145.0041  164.0793 C.ar    1  UNL1        0.0129
     25 N         143.4080  144.1705  155.6036 N.pl3   1  UNL1       -0.2591
     26 H         143.8655  144.7953  154.9957 H       1  UNL1        0.1680
     27 N         143.7127  142.7032  155.5396 N.3     1  UNL1       -0.2069
     28 C         142.6177  141.7220  155.2428 C.3     1  UNL1        0.0918
     29 C         142.9224  140.2547  155.1788 C.3     1  UNL1        0.0191
     30 C         144.3221  139.7685  155.4116 C.3     1  UNL1        0.0030
     31 C         145.4173  140.7497  155.7085 C.3     1  UNL1        0.0191
     32 C         145.1126  142.2170  155.7724 C.3     1  UNL1        0.0918
@<TRIPOS>BOND
     1    18    19    1
     2    19    20   ar
     3    20    21   ar
     4    21    22   ar
     5    22     1    1
     6     1     2   ar
     7     2    10    1
     8    10    11   ar
     9    11    12   ar
    10    12    13   ar
    11    13    14    1
    12    13    15   ar
    13    15    16   ar
    14    16    17    1
    15     2     3   ar
    16     3     4   ar
    17     4     5   ar
    18     5    25    1
    19    25    27    1
    20    27    28    1
    21    28    29    1
    22    29    30    1
    23    30    31    1
    24    31    32    1
    25     5     6   ar
    26     6     7   ar
    27     7     8   ar
    28     8     9   ar
    29    22    23   ar
    30    23    24   ar
    31    24    19   ar
    32     9     1   ar
    33    16    10   ar
    34     9     4   ar
    35    32    27    1
    36    25    26    1
