@<TRIPOS>MOLECULE
*****
 36 40 0 0 0
SMALL
GASTEIGER

@<TRIPOS>ATOM
      1 N         139.2941  145.3637  164.1753 N.3     1  UNL1       -0.3162
      2 C         139.7641  144.4318  163.0981 C.3     1  UNL1        0.1166
      3 C         140.2097  143.1689  162.4224 C.3     1  UNL1        0.0739
      4 C         140.5624  143.1826  160.9646 C.3     1  UNL1        0.2039
      5 N         140.4695  144.4592  160.1823 N.pl3   1  UNL1       -0.1931
      6 C         140.0239  145.7220  160.8580 C.3     1  UNL1        0.2039
      7 C         139.6712  145.7083  162.3159 C.3     1  UNL1        0.0739
      8 H         139.1949  144.8493  165.0505 H       1  UNL1        0.1192
      9 H         138.3930  145.7620  163.9110 H       1  UNL1        0.1192
     10 C         140.8222  144.4728  158.7244 C.2     1  UNL1        0.3205
     11 N         142.0250  145.2338  158.2509 N.2     1  UNL1        0.0097
     12 C         142.3777  145.2474  156.7931 C.2     1  UNL1        0.4717
     13 N         141.5277  144.5001  155.8087 N.2     1  UNL1        0.0158
     14 C         140.3249  143.7391  156.2822 C.2     1  UNL1        0.3714
     15 N         139.3067  142.9151  155.5512 N.2     1  UNL1       -0.0339
     16 C         138.3248  142.3922  156.5573 C.2     1  UNL1        0.2323
     17 C         138.7360  142.8930  157.9101 C.2     1  UNL1        0.0486
     18 C         139.9722  143.7255  157.7401 C.3     1  UNL1        0.2428
     19 C         139.6938  143.4789  164.2544 C.2     1  UNL1        0.2355
     20 O         138.4551  143.4129  165.0977 O.2     1  UNL1       -0.2737
     21 N         140.8623  142.5919  164.5673 N.am    1  UNL1       -0.2976
     22 H         141.6753  142.6353  164.0138 H       1  UNL1        0.1500
     23 C         140.7921  141.6389  165.7236 C.3     1  UNL1        0.1169
     24 C         141.3423  142.0397  167.0602 C.ar    1  UNL1       -0.0003
     25 C         140.4568  142.7186  168.0628 C.ar    1  UNL1       -0.0015
     26 C         141.0070  143.1193  169.3995 C.ar    1  UNL1        0.0111
     27 C         142.4426  142.8412  169.7335 C.ar    1  UNL1        0.0577
     28 CL        142.9928  143.2420  171.0702 Cl      1  UNL1       -0.0822
     29 C         143.3281  142.1624  168.7310 C.ar    1  UNL1        0.0111
     30 C         142.7779  141.7616  167.3943 C.ar    1  UNL1       -0.0015
     31 C         140.1717  140.2852  165.5431 C.ar    1  UNL1       -0.0003
     32 C         138.9239  139.9259  166.2940 C.ar    1  UNL1       -0.0024
     33 C         138.3035  138.5722  166.1135 C.ar    1  UNL1       -0.0003
     34 C         138.9309  137.5778  165.1821 C.ar    1  UNL1       -0.0000
     35 C         140.1786  137.9371  164.4312 C.ar    1  UNL1       -0.0003
     36 C         140.7991  139.2908  164.6116 C.ar    1  UNL1       -0.0024
@<TRIPOS>BOND
     1     1     2    1
     2     2    19    1
     3    19    20    2
     4    19    21   am
     5    21    23    1
     6    23    31    1
     7    31    32   ar
     8    32    33   ar
     9    33    34   ar
    10    34    35   ar
    11    35    36   ar
    12    23    24    1
    13    24    25   ar
    14    25    26   ar
    15    26    27   ar
    16    27    28    1
    17    27    29   ar
    18    29    30   ar
    19     2     3    1
    20     3     4    1
    21     4     5    1
    22     5    10    1
    23    10    11    2
    24    11    12    1
    25    12    13    2
    26    13    14    1
    27    14    15    2
    28    15    16    1
    29    16    17    2
    30    17    18    1
    31     5     6    1
    32     6     7    1
    33     7     2    1
    34    36    31   ar
    35    30    24   ar
    36    18    10    1
    37    18    14    1
    38     1     8    1
    39     1     9    1
    40    21    22    1
@<TRIPOS>MOLECULE
*****
 36 40 0 0 0
SMALL
GASTEIGER

@<TRIPOS>ATOM
      1 N         139.9505  145.3011  163.9511 N.3     1  UNL1       -0.3162
      2 C         140.1828  144.2447  162.9119 C.3     1  UNL1        0.1166
      3 C         140.3521  142.8884  162.2938 C.3     1  UNL1        0.0739
      4 C         140.6221  142.7625  160.8238 C.3     1  UNL1        0.2039
      5 N         140.7228  143.9929  159.9716 N.pl3   1  UNL1       -0.1931
      6 C         140.5535  145.3492  160.5896 C.3     1  UNL1        0.2039
      7 C         140.2835  145.4750  162.0597 C.3     1  UNL1        0.0739
      8 H         139.8060  144.8590  164.8589 H       1  UNL1        0.1192
      9 H         139.1249  145.8463  163.7031 H       1  UNL1        0.1192
     10 C         140.9928  143.8669  158.5015 C.2     1  UNL1        0.3205
     11 N         139.9331  144.2444  157.5093 N.2     1  UNL1        0.0097
     12 C         140.2031  144.1184  156.0392 C.2     1  UNL1        0.4717
     13 N         141.5328  143.6150  155.5613 N.2     1  UNL1        0.0158
     14 C         142.5926  143.2375  156.5535 C.2     1  UNL1        0.3714
     15 N         143.9880  142.7149  156.3816 N.2     1  UNL1       -0.0339
     16 C         144.5804  142.5179  157.7454 C.2     1  UNL1        0.2323
     17 C         143.5512  142.9187  158.7603 C.2     1  UNL1        0.0486
     18 C         142.3225  143.3635  158.0236 C.3     1  UNL1        0.2428
     19 C         140.0014  143.3813  164.1249 C.2     1  UNL1        0.2355
     20 O         138.7688  143.5217  164.9681 O.2     1  UNL1       -0.2737
     21 N         141.0528  142.3773  164.4947 N.am    1  UNL1       -0.2976
     22 H         141.8618  142.2851  163.9413 H       1  UNL1        0.1500
     23 C         140.8714  141.5137  165.7078 C.3     1  UNL1        0.1169
     24 C         141.3819  141.9757  167.0404 C.ar    1  UNL1       -0.0003
     25 C         142.8105  141.7264  167.4238 C.ar    1  UNL1       -0.0015
     26 C         143.3210  142.1884  168.7565 C.ar    1  UNL1        0.0111
     27 C         142.4028  142.8998  169.7056 C.ar    1  UNL1        0.0577
     28 CL        142.9133  143.3618  171.0383 Cl      1  UNL1       -0.0822
     29 C         140.9743  143.1492  169.3223 C.ar    1  UNL1        0.0111
     30 C         140.4638  142.6871  167.9896 C.ar    1  UNL1       -0.0015
     31 C         140.1797  140.1881  165.5881 C.ar    1  UNL1       -0.0003
     32 C         138.8782  139.9547  166.2963 C.ar    1  UNL1       -0.0024
     33 C         138.1865  138.6291  166.1766 C.ar    1  UNL1       -0.0003
     34 C         138.7962  137.5369  165.3487 C.ar    1  UNL1       -0.0000
     35 C         140.0976  137.7704  164.6405 C.ar    1  UNL1       -0.0003
     36 C         140.7894  139.0960  164.7601 C.ar    1  UNL1       -0.0024
@<TRIPOS>BOND
     1     1     2    1
     2     2    19    1
     3    19    20    2
     4    19    21   am
     5    21    23    1
     6    23    31    1
     7    31    32   ar
     8    32    33   ar
     9    33    34   ar
    10    34    35   ar
    11    35    36   ar
    12    23    24    1
    13    24    25   ar
    14    25    26   ar
    15    26    27   ar
    16    27    28    1
    17    27    29   ar
    18    29    30   ar
    19     2     3    1
    20     3     4    1
    21     4     5    1
    22     5    10    1
    23    10    11    2
    24    11    12    1
    25    12    13    2
    26    13    14    1
    27    14    15    2
    28    15    16    1
    29    16    17    2
    30    17    18    1
    31     5     6    1
    32     6     7    1
    33     7     2    1
    34    36    31   ar
    35    30    24   ar
    36    18    10    1
    37    18    14    1
    38     1     8    1
    39     1     9    1
    40    21    22    1
@<TRIPOS>MOLECULE
*****
 36 40 0 0 0
SMALL
GASTEIGER

@<TRIPOS>ATOM
      1 N         139.7247  145.3094  163.8490 N.3     1  UNL1       -0.3162
      2 C         140.2922  144.3054  162.8900 C.3     1  UNL1        0.1166
      3 C         140.7884  142.9976  162.3481 C.3     1  UNL1        0.0739
      4 C         141.2929  142.9131  160.9381 C.3     1  UNL1        0.2039
      5 N         141.3012  144.1363  160.0698 N.pl3   1  UNL1       -0.1931
      6 C         140.8050  145.4440  160.6116 C.3     1  UNL1        0.2039
      7 C         140.3005  145.5285  162.0218 C.3     1  UNL1        0.0739
      8 H         139.5265  144.8542  164.7401 H       1  UNL1        0.1192
      9 H         138.8623  145.6961  163.4656 H       1  UNL1        0.1192
     10 C         141.8056  144.0517  158.6597 C.2     1  UNL1        0.3205
     11 N         142.8937  143.0804  158.3094 N.2     1  UNL1        0.0097
     12 C         143.3982  142.9958  156.8994 C.2     1  UNL1        0.4717
     13 N         142.8146  143.8825  155.8395 N.2     1  UNL1        0.0158
     14 C         141.7265  144.8538  156.1898 C.2     1  UNL1        0.3714
     15 N         140.9646  145.8478  155.3644 N.2     1  UNL1       -0.0339
     16 C         139.9892  146.5468  156.2644 C.2     1  UNL1        0.2323
     17 C         140.1483  145.9847  157.6460 C.2     1  UNL1        0.0486
     18 C         141.2221  144.9384  157.5999 C.3     1  UNL1        0.2428
     19 C         140.0869  143.4308  164.0913 C.2     1  UNL1        0.2355
     20 O         138.8133  143.5244  164.8783 O.2     1  UNL1       -0.2737
     21 N         141.1552  142.4627  164.5055 N.am    1  UNL1       -0.2976
     22 H         141.9910  142.4014  163.9889 H       1  UNL1        0.1500
     23 C         140.9499  141.5882  165.7067 C.3     1  UNL1        0.1169
     24 C         141.4420  142.0338  167.0518 C.ar    1  UNL1       -0.0003
     25 C         142.8706  141.7978  167.4437 C.ar    1  UNL1       -0.0015
     26 C         143.3627  142.2434  168.7888 C.ar    1  UNL1        0.0111
     27 C         142.4262  142.9251  169.7419 C.ar    1  UNL1        0.0577
     28 CL        142.9184  143.3708  171.0870 Cl      1  UNL1       -0.0822
     29 C         140.9977  143.1611  169.3500 C.ar    1  UNL1        0.0111
     30 C         140.5055  142.7155  168.0049 C.ar    1  UNL1       -0.0015
     31 C         140.2525  140.2679  165.5629 C.ar    1  UNL1       -0.0003
     32 C         138.8511  140.1007  166.0709 C.ar    1  UNL1       -0.0024
     33 C         138.1538  138.7804  165.9269 C.ar    1  UNL1       -0.0003
     34 C         138.8578  137.6275  165.2751 C.ar    1  UNL1       -0.0000
     35 C         140.2592  137.7947  164.7671 C.ar    1  UNL1       -0.0003
     36 C         140.9566  139.1149  164.9110 C.ar    1  UNL1       -0.0024
@<TRIPOS>BOND
     1     1     2    1
     2     2    19    1
     3    19    20    2
     4    19    21   am
     5    21    23    1
     6    23    31    1
     7    31    32   ar
     8    32    33   ar
     9    33    34   ar
    10    34    35   ar
    11    35    36   ar
    12    23    24    1
    13    24    25   ar
    14    25    26   ar
    15    26    27   ar
    16    27    28    1
    17    27    29   ar
    18    29    30   ar
    19     2     3    1
    20     3     4    1
    21     4     5    1
    22     5    10    1
    23    10    11    2
    24    11    12    1
    25    12    13    2
    26    13    14    1
    27    14    15    2
    28    15    16    1
    29    16    17    2
    30    17    18    1
    31     5     6    1
    32     6     7    1
    33     7     2    1
    34    36    31   ar
    35    30    24   ar
    36    18    10    1
    37    18    14    1
    38     1     8    1
    39     1     9    1
    40    21    22    1
@<TRIPOS>MOLECULE
*****
 36 40 0 0 0
SMALL
GASTEIGER

@<TRIPOS>ATOM
      1 N         138.0598  140.3382  163.5205 N.3     1  UNL1       -0.3162
      2 C         138.9130  140.5147  162.2996 C.3     1  UNL1        0.1166
      3 C         140.1040  140.8383  161.4469 C.3     1  UNL1        0.0739
      4 C         140.0263  140.6769  159.9577 C.3     1  UNL1        0.2039
      5 N         138.7576  140.1917  159.3210 N.pl3   1  UNL1       -0.1931
      6 C         137.5667  139.8680  160.1736 C.3     1  UNL1        0.2039
      7 C         137.6445  140.0295  161.6629 C.3     1  UNL1        0.0739
      8 H         138.5958  140.5941  164.3497 H       1  UNL1        0.1192
      9 H         137.7666  139.3639  163.5925 H       1  UNL1        0.1192
     10 C         138.6800  140.0302  157.8317 C.2     1  UNL1        0.3205
     11 N         139.1641  138.7647  157.1883 N.2     1  UNL1        0.0097
     12 C         139.0865  138.6032  155.6991 C.2     1  UNL1        0.4717
     13 N         138.5247  139.7072  154.8532 N.2     1  UNL1        0.0158
     14 C         138.0405  140.9727  155.4966 C.2     1  UNL1        0.3714
     15 N         137.4422  142.2239  154.9253 N.2     1  UNL1       -0.0339
     16 C         137.1501  143.1587  156.0614 C.2     1  UNL1        0.2323
     17 C         137.5678  142.4853  157.3350 C.2     1  UNL1        0.0486
     18 C         138.1182  141.1342  156.9859 C.3     1  UNL1        0.2428
     19 C         139.8854  140.9386  163.3602 C.2     1  UNL1        0.2355
     20 O         140.0988  142.3961  163.6428 O.2     1  UNL1       -0.2737
     21 N         140.6443  139.9047  164.1382 N.am    1  UNL1       -0.2976
     22 H         140.5042  138.9481  163.9527 H       1  UNL1        0.1500
     23 C         141.6166  140.3285  165.1988 C.3     1  UNL1        0.1169
     24 C         141.2485  140.2023  166.6474 C.ar    1  UNL1       -0.0003
     25 C         139.8297  140.4211  167.0826 C.ar    1  UNL1       -0.0015
     26 C         139.4616  140.2948  168.5312 C.ar    1  UNL1        0.0111
     27 C         140.5122  139.9497  169.5447 C.ar    1  UNL1        0.0577
     28 CL        140.1440  139.8234  170.9933 Cl      1  UNL1       -0.0822
     29 C         141.9309  139.7309  169.1096 C.ar    1  UNL1        0.0111
     30 C         142.2991  139.8572  167.6609 C.ar    1  UNL1       -0.0015
     31 C         142.9571  140.8786  164.8108 C.ar    1  UNL1       -0.0003
     32 C         143.9704  139.9901  164.1524 C.ar    1  UNL1       -0.0024
     33 C         145.3109  140.5403  163.7644 C.ar    1  UNL1       -0.0003
     34 C         145.6380  141.9789  164.0347 C.ar    1  UNL1       -0.0000
     35 C         144.6246  142.8675  164.6931 C.ar    1  UNL1       -0.0003
     36 C         143.2842  142.3174  165.0812 C.ar    1  UNL1       -0.0024
@<TRIPOS>BOND
     1     1     2    1
     2     2    19    1
     3    19    20    2
     4    19    21   am
     5    21    23    1
     6    23    31    1
     7    31    32   ar
     8    32    33   ar
     9    33    34   ar
    10    34    35   ar
    11    35    36   ar
    12    23    24    1
    13    24    25   ar
    14    25    26   ar
    15    26    27   ar
    16    27    28    1
    17    27    29   ar
    18    29    30   ar
    19     2     3    1
    20     3     4    1
    21     4     5    1
    22     5    10    1
    23    10    11    2
    24    11    12    1
    25    12    13    2
    26    13    14    1
    27    14    15    2
    28    15    16    1
    29    16    17    2
    30    17    18    1
    31     5     6    1
    32     6     7    1
    33     7     2    1
    34    36    31   ar
    35    30    24   ar
    36    18    10    1
    37    18    14    1
    38     1     8    1
    39     1     9    1
    40    21    22    1
@<TRIPOS>MOLECULE
*****
 36 40 0 0 0
SMALL
GASTEIGER

@<TRIPOS>ATOM
      1 N         141.7817  138.1172  158.9993 N.3     1  UNL1       -0.3162
      2 C         140.5652  138.9785  159.1668 C.3     1  UNL1        0.1166
      3 C         139.5014  139.8016  159.8308 C.3     1  UNL1        0.0739
      4 C         138.4203  140.4358  159.0068 C.3     1  UNL1        0.2039
      5 N         138.4030  140.2470  157.5188 N.pl3   1  UNL1       -0.1931
      6 C         139.4667  139.4239  156.8548 C.3     1  UNL1        0.2039
      7 C         140.5479  138.7897  157.6788 C.3     1  UNL1        0.0739
      8 H         142.2063  137.9475  159.9111 H       1  UNL1        0.1192
      9 H         142.4529  138.5907  158.3945 H       1  UNL1        0.1192
     10 C         137.3218  140.8812  156.6949 C.2     1  UNL1        0.3205
     11 N         136.0718  140.1144  156.3794 N.2     1  UNL1        0.0097
     12 C         134.9907  140.7486  155.5555 C.2     1  UNL1        0.4717
     13 N         135.1595  142.1497  155.0470 N.2     1  UNL1        0.0158
     14 C         136.4095  142.9165  155.3625 C.2     1  UNL1        0.3714
     15 N         136.8544  144.3028  155.0018 N.2     1  UNL1       -0.0339
     16 C         138.2105  144.5254  155.6029 C.2     1  UNL1        0.2323
     17 C         138.6037  143.2767  156.3350 C.2     1  UNL1        0.0486
     18 C         137.4906  142.2823  156.1864 C.3     1  UNL1        0.2428
     19 C         141.0050  138.8683  160.5966 C.2     1  UNL1        0.2355
     20 O         141.6296  137.5982  161.0934 O.2     1  UNL1       -0.2737
     21 N         140.8202  140.0282  161.5296 N.am    1  UNL1       -0.2976
     22 H         140.4103  140.8618  161.2035 H       1  UNL1        0.1500
     23 C         141.2600  139.9180  162.9595 C.3     1  UNL1        0.1169
     24 C         140.2831  139.4884  164.0136 C.ar    1  UNL1       -0.0003
     25 C         139.7289  140.4951  164.9776 C.ar    1  UNL1       -0.0015
     26 C         138.7521  140.0654  166.0317 C.ar    1  UNL1        0.0111
     27 C         138.3295  138.6290  166.1217 C.ar    1  UNL1        0.0577
     28 CL        137.3526  138.1994  167.1759 Cl      1  UNL1       -0.0822
     29 C         138.8836  137.6223  165.1578 C.ar    1  UNL1        0.0111
     30 C         139.8605  138.0519  164.1036 C.ar    1  UNL1       -0.0015
     31 C         142.6766  140.2375  163.3352 C.ar    1  UNL1       -0.0003
     32 C         143.2237  141.6136  163.0964 C.ar    1  UNL1       -0.0024
     33 C         144.6404  141.9330  163.4721 C.ar    1  UNL1       -0.0003
     34 C         145.5098  140.8765  164.0866 C.ar    1  UNL1       -0.0000
     35 C         144.9627  139.5004  164.3253 C.ar    1  UNL1       -0.0003
     36 C         143.5461  139.1809  163.9496 C.ar    1  UNL1       -0.0024
@<TRIPOS>BOND
     1     1     2    1
     2     2    19    1
     3    19    20    2
     4    19    21   am
     5    21    23    1
     6    23    31    1
     7    31    32   ar
     8    32    33   ar
     9    33    34   ar
    10    34    35   ar
    11    35    36   ar
    12    23    24    1
    13    24    25   ar
    14    25    26   ar
    15    26    27   ar
    16    27    28    1
    17    27    29   ar
    18    29    30   ar
    19     2     3    1
    20     3     4    1
    21     4     5    1
    22     5    10    1
    23    10    11    2
    24    11    12    1
    25    12    13    2
    26    13    14    1
    27    14    15    2
    28    15    16    1
    29    16    17    2
    30    17    18    1
    31     5     6    1
    32     6     7    1
    33     7     2    1
    34    36    31   ar
    35    30    24   ar
    36    18    10    1
    37    18    14    1
    38     1     8    1
    39     1     9    1
    40    21    22    1
@<TRIPOS>MOLECULE
*****
 36 40 0 0 0
SMALL
GASTEIGER

@<TRIPOS>ATOM
      1 N         143.3594  138.7186  164.2869 N.3     1  UNL1       -0.3162
      2 C         142.7080  139.2042  163.0261 C.3     1  UNL1        0.1166
      3 C         141.7310  139.8910  162.1184 C.3     1  UNL1        0.0739
      4 C         141.9178  139.8297  160.6314 C.3     1  UNL1        0.2039
      5 N         143.0817  139.0815  160.0519 N.pl3   1  UNL1       -0.1931
      6 C         144.0586  138.3946  160.9595 C.3     1  UNL1        0.2039
      7 C         143.8718  138.4560  162.4466 C.3     1  UNL1        0.0739
      8 H         142.8230  139.0407  165.0925 H       1  UNL1        0.1192
      9 H         144.3094  139.0859  164.3420 H       1  UNL1        0.1192
     10 C         143.2684  139.0201  158.5648 C.2     1  UNL1        0.3205
     11 N         142.9193  137.7681  157.8161 N.2     1  UNL1        0.0097
     12 C         143.1061  137.7068  156.3291 C.2     1  UNL1        0.4717
     13 N         143.6420  138.8975  155.5907 N.2     1  UNL1        0.0158
     14 C         143.9911  140.1494  156.3394 C.2     1  UNL1        0.3714
     15 N         144.5348  141.4717  155.8856 N.2     1  UNL1       -0.0339
     16 C         144.6840  142.3503  157.0922 C.2     1  UNL1        0.2323
     17 C         144.2326  141.5710  158.2917 C.2     1  UNL1        0.0486
     18 C         143.8043  140.2108  157.8265 C.3     1  UNL1        0.2428
     19 C         141.7704  139.7838  164.0434 C.2     1  UNL1        0.2355
     20 O         140.6466  138.9524  164.5872 O.2     1  UNL1       -0.2737
     21 N         141.9568  141.1948  164.5169 N.am    1  UNL1       -0.2976
     22 H         142.6944  141.7405  164.1599 H       1  UNL1        0.1500
     23 C         141.0192  141.7745  165.5342 C.3     1  UNL1        0.1169
     24 C         141.2648  141.5466  166.9963 C.ar    1  UNL1       -0.0003
     25 C         140.2237  140.8655  167.8344 C.ar    1  UNL1       -0.0015
     26 C         140.4693  140.6376  169.2965 C.ar    1  UNL1        0.0111
     27 C         141.7560  141.0907  169.9204 C.ar    1  UNL1        0.0577
     28 CL        142.0016  140.8627  171.3826 Cl      1  UNL1       -0.0822
     29 C         142.7970  141.7717  169.0823 C.ar    1  UNL1        0.0111
     30 C         142.5514  141.9997  167.6202 C.ar    1  UNL1       -0.0015
     31 C         139.8360  142.5822  165.0894 C.ar    1  UNL1       -0.0003
     32 C         139.6200  143.9612  165.6384 C.ar    1  UNL1       -0.0024
     33 C         138.4368  144.7688  165.1935 C.ar    1  UNL1       -0.0003
     34 C         137.4696  144.1974  164.1997 C.ar    1  UNL1       -0.0000
     35 C         137.6856  142.8183  163.6506 C.ar    1  UNL1       -0.0003
     36 C         138.8687  142.0107  164.0954 C.ar    1  UNL1       -0.0024
@<TRIPOS>BOND
     1     1     2    1
     2     2    19    1
     3    19    20    2
     4    19    21   am
     5    21    23    1
     6    23    31    1
     7    31    32   ar
     8    32    33   ar
     9    33    34   ar
    10    34    35   ar
    11    35    36   ar
    12    23    24    1
    13    24    25   ar
    14    25    26   ar
    15    26    27   ar
    16    27    28    1
    17    27    29   ar
    18    29    30   ar
    19     2     3    1
    20     3     4    1
    21     4     5    1
    22     5    10    1
    23    10    11    2
    24    11    12    1
    25    12    13    2
    26    13    14    1
    27    14    15    2
    28    15    16    1
    29    16    17    2
    30    17    18    1
    31     5     6    1
    32     6     7    1
    33     7     2    1
    34    36    31   ar
    35    30    24   ar
    36    18    10    1
    37    18    14    1
    38     1     8    1
    39     1     9    1
    40    21    22    1
@<TRIPOS>MOLECULE
*****
 36 40 0 0 0
SMALL
GASTEIGER

@<TRIPOS>ATOM
      1 N         137.1421  140.9388  163.1956 N.3     1  UNL1       -0.3162
      2 C         138.2852  140.9431  162.2245 C.3     1  UNL1        0.1166
      3 C         139.6482  141.1992  161.6529 C.3     1  UNL1        0.0739
      4 C         139.9811  140.7291  160.2679 C.3     1  UNL1        0.2039
      5 N         138.9510  140.0030  159.4544 N.pl3   1  UNL1       -0.1931
      6 C         137.5880  139.7470  160.0260 C.3     1  UNL1        0.2039
      7 C         137.2551  140.2171  161.4110 C.3     1  UNL1        0.0739
      8 H         137.4244  141.4099  164.0551 H       1  UNL1        0.1192
      9 H         136.8787  139.9761  163.4064 H       1  UNL1        0.1192
     10 C         139.2839  139.5329  158.0694 C.2     1  UNL1        0.3205
     11 N         138.3621  139.8477  156.9288 N.2     1  UNL1        0.0097
     12 C         138.6950  139.3777  155.5438 C.2     1  UNL1        0.4717
     13 N         139.9498  138.5928  155.2994 N.2     1  UNL1        0.0158
     14 C         140.8716  138.2781  156.4401 C.2     1  UNL1        0.3714
     15 N         142.1696  137.5290  156.5043 N.2     1  UNL1       -0.0339
     16 C         142.6389  137.5362  157.9290 C.2     1  UNL1        0.2323
     17 C         141.6309  138.2896  158.7453 C.2     1  UNL1        0.0486
     18 C         140.5386  138.7481  157.8251 C.3     1  UNL1        0.2428
     19 C         138.9184  141.6677  163.3752 C.2     1  UNL1        0.2355
     20 O         138.2189  142.8377  164.0010 O.2     1  UNL1       -0.2737
     21 N         140.2511  141.2221  163.8999 N.am    1  UNL1       -0.2976
     22 H         140.7101  140.4542  163.4891 H       1  UNL1        0.1500
     23 C         140.8843  141.9467  165.0507 C.3     1  UNL1        0.1169
     24 C         140.5089  141.5912  166.4587 C.ar    1  UNL1       -0.0003
     25 C         139.9317  140.2405  166.7628 C.ar    1  UNL1       -0.0015
     26 C         139.5563  139.8850  168.1709 C.ar    1  UNL1        0.0111
     27 C         139.7580  140.8803  169.2748 C.ar    1  UNL1        0.0577
     28 CL        139.3826  140.5248  170.6830 Cl      1  UNL1       -0.0822
     29 C         140.3351  142.2310  168.9708 C.ar    1  UNL1        0.0111
     30 C         140.7106  142.5865  167.5627 C.ar    1  UNL1       -0.0015
     31 C         141.8930  143.0267  164.7932 C.ar    1  UNL1       -0.0003
     32 C         141.4815  144.2843  164.0868 C.ar    1  UNL1       -0.0024
     33 C         142.4903  145.3642  163.8294 C.ar    1  UNL1       -0.0003
     34 C         143.9104  145.1866  164.2784 C.ar    1  UNL1       -0.0000
     35 C         144.3218  143.9289  164.9847 C.ar    1  UNL1       -0.0003
     36 C         143.3132  142.8489  165.2422 C.ar    1  UNL1       -0.0024
@<TRIPOS>BOND
     1     1     2    1
     2     2    19    1
     3    19    20    2
     4    19    21   am
     5    21    23    1
     6    23    31    1
     7    31    32   ar
     8    32    33   ar
     9    33    34   ar
    10    34    35   ar
    11    35    36   ar
    12    23    24    1
    13    24    25   ar
    14    25    26   ar
    15    26    27   ar
    16    27    28    1
    17    27    29   ar
    18    29    30   ar
    19     2     3    1
    20     3     4    1
    21     4     5    1
    22     5    10    1
    23    10    11    2
    24    11    12    1
    25    12    13    2
    26    13    14    1
    27    14    15    2
    28    15    16    1
    29    16    17    2
    30    17    18    1
    31     5     6    1
    32     6     7    1
    33     7     2    1
    34    36    31   ar
    35    30    24   ar
    36    18    10    1
    37    18    14    1
    38     1     8    1
    39     1     9    1
    40    21    22    1
@<TRIPOS>MOLECULE
*****
 36 40 0 0 0
SMALL
GASTEIGER

@<TRIPOS>ATOM
      1 N         143.7570  139.3804  164.0594 N.3     1  UNL1       -0.3162
      2 C         143.2002  140.0141  162.8191 C.3     1  UNL1        0.1166
      3 C         142.4200  140.9475  161.9415 C.3     1  UNL1        0.0739
      4 C         142.4764  140.7978  160.4501 C.3     1  UNL1        0.2039
      5 N         143.3131  139.7146  159.8362 N.pl3   1  UNL1       -0.1931
      6 C         144.0934  138.7813  160.7137 C.3     1  UNL1        0.2039
      7 C         144.0369  138.9310  162.2051 C.3     1  UNL1        0.0739
      8 H         143.4015  139.8703  164.8804 H       1  UNL1        0.1192
      9 H         144.7752  139.4386  164.0431 H       1  UNL1        0.1192
     10 C         143.3695  139.5650  158.3447 C.2     1  UNL1        0.3205
     11 N         144.5405  140.1074  157.5803 N.2     1  UNL1        0.0097
     12 C         144.5970  139.9578  156.0889 C.2     1  UNL1        0.4717
     13 N         143.4824  139.2656  155.3618 N.2     1  UNL1        0.0158
     14 C         142.3114  138.7231  156.1263 C.2     1  UNL1        0.3714
     15 N         141.0738  137.9989  155.6859 N.2     1  UNL1       -0.0339
     16 C         140.2525  137.7010  156.9052 C.2     1  UNL1        0.2323
     17 C         140.9825  138.2411  158.0991 C.2     1  UNL1        0.0486
     18 C         142.2549  138.8728  157.6177 C.3     1  UNL1        0.2428
     19 C         142.5569  140.8771  163.8637 C.2     1  UNL1        0.2355
     20 O         143.1154  142.2371  164.1610 O.2     1  UNL1       -0.2737
     21 N         141.3550  140.3800  164.6110 N.am    1  UNL1       -0.2976
     22 H         140.9885  139.4874  164.4159 H       1  UNL1        0.1500
     23 C         140.7116  141.2430  165.6557 C.3     1  UNL1        0.1169
     24 C         141.0859  141.0787  167.0989 C.ar    1  UNL1       -0.0003
     25 C         140.1745  140.3356  168.0302 C.ar    1  UNL1       -0.0015
     26 C         140.5488  140.1713  169.4734 C.ar    1  UNL1        0.0111
     27 C         141.8345  140.7500  169.9853 C.ar    1  UNL1        0.0577
     28 CL        142.2088  140.5856  171.4286 Cl      1  UNL1       -0.0822
     29 C         142.7459  141.4930  169.0541 C.ar    1  UNL1        0.0111
     30 C         142.3716  141.6574  167.6108 C.ar    1  UNL1       -0.0015
     31 C         139.6939  142.2704  165.2571 C.ar    1  UNL1       -0.0003
     32 C         138.5808  141.9001  164.3223 C.ar    1  UNL1       -0.0024
     33 C         137.5631  142.9275  163.9238 C.ar    1  UNL1       -0.0003
     34 C         137.6585  144.3251  164.4599 C.ar    1  UNL1       -0.0000
     35 C         138.7717  144.6954  165.3946 C.ar    1  UNL1       -0.0003
     36 C         139.7894  143.6680  165.7933 C.ar    1  UNL1       -0.0024
@<TRIPOS>BOND
     1     1     2    1
     2     2    19    1
     3    19    20    2
     4    19    21   am
     5    21    23    1
     6    23    31    1
     7    31    32   ar
     8    32    33   ar
     9    33    34   ar
    10    34    35   ar
    11    35    36   ar
    12    23    24    1
    13    24    25   ar
    14    25    26   ar
    15    26    27   ar
    16    27    28    1
    17    27    29   ar
    18    29    30   ar
    19     2     3    1
    20     3     4    1
    21     4     5    1
    22     5    10    1
    23    10    11    2
    24    11    12    1
    25    12    13    2
    26    13    14    1
    27    14    15    2
    28    15    16    1
    29    16    17    2
    30    17    18    1
    31     5     6    1
    32     6     7    1
    33     7     2    1
    34    36    31   ar
    35    30    24   ar
    36    18    10    1
    37    18    14    1
    38     1     8    1
    39     1     9    1
    40    21    22    1
@<TRIPOS>MOLECULE
*****
 36 40 0 0 0
SMALL
GASTEIGER

@<TRIPOS>ATOM
      1 N         138.2288  141.8476  159.7537 N.3     1  UNL1       -0.3162
      2 C         139.1444  142.9653  159.3511 C.3     1  UNL1        0.1166
      3 C         140.1640  144.0603  159.4583 C.3     1  UNL1        0.0739
      4 C         140.5664  144.8327  158.2371 C.3     1  UNL1        0.2039
      5 N         139.9492  144.5101  156.9085 N.pl3   1  UNL1       -0.1931
      6 C         138.9296  143.4152  156.8012 C.3     1  UNL1        0.2039
      7 C         138.5272  142.6428  158.0225 C.3     1  UNL1        0.0739
      8 H         138.3195  141.6779  160.7554 H       1  UNL1        0.1192
      9 H         138.4791  141.0018  159.2415 H       1  UNL1        0.1192
     10 C         140.3516  145.2826  155.6872 C.2     1  UNL1        0.3205
     11 N         141.2468  144.6519  154.6621 N.2     1  UNL1        0.0097
     12 C         141.6491  145.4243  153.4409 C.2     1  UNL1        0.4717
     13 N         141.1563  146.8274  153.2447 N.2     1  UNL1        0.0158
     14 C         140.2611  147.4581  154.2698 C.2     1  UNL1        0.3714
     15 N         139.6234  148.8135  154.3476 N.2     1  UNL1       -0.0339
     16 C         138.8268  148.8788  155.6169 C.2     1  UNL1        0.2323
     17 C         138.9722  147.5637  156.3236 C.2     1  UNL1        0.0486
     18 C         139.8587  146.6856  155.4911 C.3     1  UNL1        0.2428
     19 C         139.4437  142.8997  160.8194 C.2     1  UNL1        0.2355
     20 O         138.5869  143.6523  161.7938 O.2     1  UNL1       -0.2737
     21 N         140.5998  142.0815  161.3133 N.am    1  UNL1       -0.2976
     22 H         141.1621  141.5876  160.6738 H       1  UNL1        0.1500
     23 C         140.8991  142.0159  162.7817 C.3     1  UNL1        0.1169
     24 C         140.1614  141.0446  163.6548 C.ar    1  UNL1       -0.0003
     25 C         140.4747  139.5796  163.5783 C.ar    1  UNL1       -0.0015
     26 C         139.7370  138.6083  164.4514 C.ar    1  UNL1        0.0111
     27 C         138.6860  139.1020  165.4010 C.ar    1  UNL1        0.0577
     28 CL        137.9483  138.1306  166.2742 Cl      1  UNL1       -0.0822
     29 C         138.3727  140.5668  165.4776 C.ar    1  UNL1        0.0111
     30 C         139.1104  141.5382  164.6044 C.ar    1  UNL1       -0.0015
     31 C         141.9361  142.9216  163.3769 C.ar    1  UNL1       -0.0003
     32 C         142.8890  142.3948  164.4087 C.ar    1  UNL1       -0.0024
     33 C         143.9259  143.3006  165.0039 C.ar    1  UNL1       -0.0003
     34 C         144.0101  144.7332  164.5673 C.ar    1  UNL1       -0.0000
     35 C         143.0573  145.2600  163.5356 C.ar    1  UNL1       -0.0003
     36 C         142.0203  144.3543  162.9403 C.ar    1  UNL1       -0.0024
@<TRIPOS>BOND
     1     1     2    1
     2     2    19    1
     3    19    20    2
     4    19    21   am
     5    21    23    1
     6    23    31    1
     7    31    32   ar
     8    32    33   ar
     9    33    34   ar
    10    34    35   ar
    11    35    36   ar
    12    23    24    1
    13    24    25   ar
    14    25    26   ar
    15    26    27   ar
    16    27    28    1
    17    27    29   ar
    18    29    30   ar
    19     2     3    1
    20     3     4    1
    21     4     5    1
    22     5    10    1
    23    10    11    2
    24    11    12    1
    25    12    13    2
    26    13    14    1
    27    14    15    2
    28    15    16    1
    29    16    17    2
    30    17    18    1
    31     5     6    1
    32     6     7    1
    33     7     2    1
    34    36    31   ar
    35    30    24   ar
    36    18    10    1
    37    18    14    1
    38     1     8    1
    39     1     9    1
    40    21    22    1
