@<TRIPOS>MOLECULE
*****
 33 36 0 0 0
SMALL
GASTEIGER

@<TRIPOS>ATOM
      1 N         143.6615  141.0784  160.7467 N.3     1  UNL1       -0.2673
      2 C         142.7296  142.1633  161.1989 C.3     1  UNL1        0.1035
      3 C         142.6171  142.4957  162.6572 C.3     1  UNL1        0.1470
      4 C         142.5046  142.8282  164.1156 C.3     1  UNL1        0.1037
      5 N         143.3241  142.0757  165.1218 N.3     1  UNL1       -0.2647
      6 C         144.2560  140.9908  164.6695 C.3     1  UNL1        0.1037
      7 C         144.3685  140.6584  163.2112 C.3     1  UNL1        0.1470
      8 C         144.4810  140.3259  161.7528 C.3     1  UNL1        0.1035
      9 O         143.4366  141.7432  163.6634 O.3     1  UNL1       -0.3530
     10 C         143.7740  140.7459  159.2883 C.3     1  UNL1        0.0916
     11 C         142.6630  140.0111  158.5987 C.3     1  UNL1        0.1131
     12 C         142.6559  137.4432  158.2039 C.3     1  UNL1        0.1149
     13 N         142.2874  138.6291  159.0451 N.3     1  UNL1       -0.1526
     14 S         141.5432  138.4332  160.3326 S.O2    1  UNL1        0.0634
     15 O         142.6054  137.4838  160.8021 O.2     1  UNL1       -0.1528
     16 O         140.4810  139.3826  159.8631 O.2     1  UNL1       -0.1528
     17 C         140.7990  138.2373  161.6202 C.ar    1  UNL1        0.1222
     18 C         139.3032  138.1254  161.6124 C.ar    1  UNL1        0.0206
     19 C         138.5591  137.9294  162.8999 C.ar    1  UNL1        0.0116
     20 C         139.3106  137.8455  164.1953 C.ar    1  UNL1        0.0685
     21 C         140.8065  137.9574  164.2032 C.ar    1  UNL1        0.0116
     22 C         141.5507  138.1533  162.9156 C.ar    1  UNL1        0.0206
     23 C         138.5665  137.6496  165.4829 C.1     1  UNL1        0.1004
     24 N         137.8223  137.4537  166.7704 N.1     1  UNL1       -0.1908
     25 C         143.2116  142.4082  166.5801 C.3     1  UNL1        0.0993
     26 C         142.0814  141.8483  167.3920 C.ar    1  UNL1       -0.0061
     27 C         141.6317  142.5528  168.6376 C.ar    1  UNL1       -0.0022
     28 C         140.5015  141.9930  169.4495 C.ar    1  UNL1        0.0100
     29 C         139.8210  140.7286  169.0158 C.ar    1  UNL1        0.0684
     30 C         140.2706  140.0241  167.7702 C.ar    1  UNL1        0.0100
     31 C         141.4008  140.5839  166.9583 C.ar    1  UNL1       -0.0022
     32 C         138.6907  140.1688  169.8277 C.1     1  UNL1        0.1004
     33 N         137.5605  139.6089  170.6395 N.1     1  UNL1       -0.1908
@<TRIPOS>BOND
     1    12    13    1
     2    13    11    1
     3    11    10    1
     4    10     1    1
     5     1     2    1
     6     2     3    1
     7     3     4    1
     8     4     5    1
     9     5    25    1
    10    25    26    1
    11    26    27   ar
    12    27    28   ar
    13    28    29   ar
    14    29    32    1
    15    32    33    3
    16    29    30   ar
    17    30    31   ar
    18     5     6    1
    19     6     7    1
    20     7     8    1
    21     7     9    1
    22    13    14    1
    23    14    15    2
    24    14    16    2
    25    14    17    1
    26    17    18   ar
    27    18    19   ar
    28    19    20   ar
    29    20    23    1
    30    23    24    3
    31    20    21   ar
    32    21    22   ar
    33     8     1    1
    34    22    17   ar
    35     9     3    1
    36    31    26   ar
@<TRIPOS>MOLECULE
*****
 33 36 0 0 0
SMALL
GASTEIGER

@<TRIPOS>ATOM
      1 N         139.1729  138.8728  161.0922 N.3     1  UNL1       -0.2673
      2 C         139.7288  137.8016  161.9830 C.3     1  UNL1        0.1035
      3 C         139.5789  137.9114  163.4714 C.3     1  UNL1        0.1470
      4 C         139.4291  138.0212  164.9599 C.3     1  UNL1        0.1037
      5 N         138.7234  139.2023  165.5576 N.3     1  UNL1       -0.2647
      6 C         138.1675  140.2735  164.6667 C.3     1  UNL1        0.1037
      7 C         138.3173  140.1636  163.1783 C.3     1  UNL1        0.1470
      8 C         138.4672  140.0538  161.6899 C.3     1  UNL1        0.1035
      9 O         138.8732  139.0925  164.0691 O.3     1  UNL1       -0.3530
     10 C         139.3227  138.7630  159.6037 C.3     1  UNL1        0.0916
     11 C         140.5060  139.3826  158.9213 C.3     1  UNL1        0.1131
     12 C         142.7243  138.0323  158.8428 C.3     1  UNL1        0.1149
     13 N         141.8900  139.1265  159.4400 N.3     1  UNL1       -0.1526
     14 S         142.4397  139.9646  160.5560 S.O2    1  UNL1        0.0634
     15 O         141.8645  141.1935  159.9165 O.2     1  UNL1       -0.1528
     16 O         143.0150  138.7357  161.1956 O.2     1  UNL1       -0.1528
     17 C         142.9894  140.8027  161.6721 C.ar    1  UNL1        0.1222
     18 C         142.1302  141.1306  162.8570 C.ar    1  UNL1        0.0206
     19 C         142.6799  141.9687  163.9730 C.ar    1  UNL1        0.0116
     20 C         144.0888  142.4788  163.9041 C.ar    1  UNL1        0.0685
     21 C         144.9480  142.1509  162.7191 C.ar    1  UNL1        0.0116
     22 C         144.3984  141.3128  161.6031 C.ar    1  UNL1        0.0206
     23 C         144.6384  143.3169  165.0201 C.1     1  UNL1        0.1004
     24 N         145.1881  144.1550  166.1361 N.1     1  UNL1       -0.1908
     25 C         138.5735  139.3121  167.0460 C.3     1  UNL1        0.0993
     26 C         139.4872  140.2090  167.8276 C.ar    1  UNL1       -0.0061
     27 C         139.3322  140.3248  169.3151 C.ar    1  UNL1       -0.0022
     28 C         140.2458  141.2216  170.0968 C.ar    1  UNL1        0.0100
     29 C         141.3144  142.0026  169.3910 C.ar    1  UNL1        0.0684
     30 C         141.4694  141.8867  167.9035 C.ar    1  UNL1        0.0100
     31 C         140.5558  140.9899  167.1218 C.ar    1  UNL1       -0.0022
     32 C         142.2281  142.8994  170.1726 C.1     1  UNL1        0.1004
     33 N         143.1417  143.7962  170.9542 N.1     1  UNL1       -0.1908
@<TRIPOS>BOND
     1    12    13    1
     2    13    11    1
     3    11    10    1
     4    10     1    1
     5     1     2    1
     6     2     3    1
     7     3     4    1
     8     4     5    1
     9     5    25    1
    10    25    26    1
    11    26    27   ar
    12    27    28   ar
    13    28    29   ar
    14    29    32    1
    15    32    33    3
    16    29    30   ar
    17    30    31   ar
    18     5     6    1
    19     6     7    1
    20     7     8    1
    21     7     9    1
    22    13    14    1
    23    14    15    2
    24    14    16    2
    25    14    17    1
    26    17    18   ar
    27    18    19   ar
    28    19    20   ar
    29    20    23    1
    30    23    24    3
    31    20    21   ar
    32    21    22   ar
    33     8     1    1
    34    22    17   ar
    35     9     3    1
    36    31    26   ar
@<TRIPOS>MOLECULE
*****
 33 36 0 0 0
SMALL
GASTEIGER

@<TRIPOS>ATOM
      1 N         142.0569  139.5290  160.3035 N.3     1  UNL1       -0.2673
      2 C         142.2400  141.0176  160.3243 C.3     1  UNL1        0.1035
      3 C         142.6986  141.6994  161.5792 C.3     1  UNL1        0.1470
      4 C         143.1573  142.3811  162.8342 C.3     1  UNL1        0.1037
      5 N         143.4329  141.5742  164.0683 N.3     1  UNL1       -0.2647
      6 C         143.2499  140.0855  164.0474 C.3     1  UNL1        0.1037
      7 C         142.7912  139.4038  162.7925 C.3     1  UNL1        0.1470
      8 C         142.3326  138.7221  161.5375 C.3     1  UNL1        0.1035
      9 O         142.9742  140.8924  162.8133 O.3     1  UNL1       -0.3530
     10 C         141.5983  138.8472  159.0485 C.3     1  UNL1        0.0916
     11 C         140.1415  138.5543  158.8436 C.3     1  UNL1        0.1131
     12 C         138.2547  140.3317  158.6678 C.3     1  UNL1        0.1149
     13 N         139.1037  139.4163  159.4993 N.3     1  UNL1       -0.1526
     14 S         138.9149  139.3630  160.9864 S.O2    1  UNL1        0.0634
     15 O         138.9852  137.8653  160.9416 O.2     1  UNL1       -0.1528
     16 O         138.8446  140.8607  161.0312 O.2     1  UNL1       -0.1528
     17 C         138.7261  139.3097  162.4735 C.ar    1  UNL1        0.1222
     18 C         138.9323  138.0193  163.2099 C.ar    1  UNL1        0.0206
     19 C         138.7435  137.9659  164.6970 C.ar    1  UNL1        0.0116
     20 C         138.3485  139.2030  165.4477 C.ar    1  UNL1        0.0685
     21 C         138.1423  140.4934  164.7113 C.ar    1  UNL1        0.0116
     22 C         138.3311  140.5468  163.2242 C.ar    1  UNL1        0.0206
     23 C         138.1597  139.1496  166.9348 C.1     1  UNL1        0.1004
     24 N         137.9710  139.0963  168.4220 N.1     1  UNL1       -0.1908
     25 C         143.8915  142.2559  165.3232 C.3     1  UNL1        0.0993
     26 C         142.9498  142.4089  166.4808 C.ar    1  UNL1       -0.0061
     27 C         143.4724  142.3498  167.8856 C.ar    1  UNL1       -0.0022
     28 C         142.5308  142.5028  169.0431 C.ar    1  UNL1        0.0100
     29 C         141.0666  142.7148  168.7958 C.ar    1  UNL1        0.0684
     30 C         140.5441  142.7739  167.3910 C.ar    1  UNL1        0.0100
     31 C         141.4857  142.6210  166.2335 C.ar    1  UNL1       -0.0022
     32 C         140.1249  142.8678  169.9534 C.1     1  UNL1        0.1004
     33 N         139.1833  143.0208  171.1109 N.1     1  UNL1       -0.1908
@<TRIPOS>BOND
     1    12    13    1
     2    13    11    1
     3    11    10    1
     4    10     1    1
     5     1     2    1
     6     2     3    1
     7     3     4    1
     8     4     5    1
     9     5    25    1
    10    25    26    1
    11    26    27   ar
    12    27    28   ar
    13    28    29   ar
    14    29    32    1
    15    32    33    3
    16    29    30   ar
    17    30    31   ar
    18     5     6    1
    19     6     7    1
    20     7     8    1
    21     7     9    1
    22    13    14    1
    23    14    15    2
    24    14    16    2
    25    14    17    1
    26    17    18   ar
    27    18    19   ar
    28    19    20   ar
    29    20    23    1
    30    23    24    3
    31    20    21   ar
    32    21    22   ar
    33     8     1    1
    34    22    17   ar
    35     9     3    1
    36    31    26   ar
@<TRIPOS>MOLECULE
*****
 33 36 0 0 0
SMALL
GASTEIGER

@<TRIPOS>ATOM
      1 N         143.4599  139.5308  160.9951 N.3     1  UNL1       -0.2673
      2 C         142.4323  138.6204  161.5992 C.3     1  UNL1        0.1035
      3 C         142.3861  138.4232  163.0855 C.3     1  UNL1        0.1470
      4 C         142.3399  138.2259  164.5718 C.3     1  UNL1        0.1037
      5 N         143.3214  138.9390  165.4539 N.3     1  UNL1       -0.2647
      6 C         144.3491  139.8495  164.8496 C.3     1  UNL1        0.1037
      7 C         144.3952  140.0467  163.3634 C.3     1  UNL1        0.1470
      8 C         144.4414  140.2440  161.8772 C.3     1  UNL1        0.1035
      9 O         143.3676  139.1363  163.9676 O.3     1  UNL1       -0.3530
     10 C         143.5061  139.7281  159.5088 C.3     1  UNL1        0.0916
     11 C         142.6031  140.7331  158.8572 C.3     1  UNL1        0.1131
     12 C         143.5818  143.0961  158.4009 C.3     1  UNL1        0.1149
     13 N         142.7136  142.1851  159.2170 N.3     1  UNL1       -0.1526
     14 S         141.9557  142.7261  160.3931 S.O2    1  UNL1        0.0634
     15 O         143.1443  143.5567  160.7769 O.2     1  UNL1       -0.1528
     16 O         140.7672  141.8954  160.0093 O.2     1  UNL1       -0.1528
     17 C         141.1979  143.2670  161.5691 C.ar    1  UNL1        0.1222
     18 C         141.5038  142.7706  162.9511 C.ar    1  UNL1        0.0206
     19 C         140.7459  143.3116  164.1272 C.ar    1  UNL1        0.0116
     20 C         139.6822  144.3489  163.9212 C.ar    1  UNL1        0.0685
     21 C         139.3763  144.8454  162.5391 C.ar    1  UNL1        0.0116
     22 C         140.1342  144.3044  161.3631 C.ar    1  UNL1        0.0206
     23 C         138.9244  144.8898  165.0972 C.1     1  UNL1        0.1004
     24 N         138.1666  145.4308  166.2733 N.1     1  UNL1       -0.1908
     25 C         143.2752  138.7418  166.9401 C.3     1  UNL1        0.0993
     26 C         142.4577  139.6650  167.7942 C.ar    1  UNL1       -0.0061
     27 C         142.1866  139.3171  169.2279 C.ar    1  UNL1       -0.0022
     28 C         141.3691  140.2403  170.0820 C.ar    1  UNL1        0.0100
     29 C         140.8229  141.5113  169.5024 C.ar    1  UNL1        0.0684
     30 C         141.0940  141.8592  168.0687 C.ar    1  UNL1        0.0100
     31 C         141.9115  140.9361  167.2146 C.ar    1  UNL1       -0.0022
     32 C         140.0054  142.4346  170.3565 C.1     1  UNL1        0.1004
     33 N         139.1880  143.3578  171.2106 N.1     1  UNL1       -0.1908
@<TRIPOS>BOND
     1    12    13    1
     2    13    11    1
     3    11    10    1
     4    10     1    1
     5     1     2    1
     6     2     3    1
     7     3     4    1
     8     4     5    1
     9     5    25    1
    10    25    26    1
    11    26    27   ar
    12    27    28   ar
    13    28    29   ar
    14    29    32    1
    15    32    33    3
    16    29    30   ar
    17    30    31   ar
    18     5     6    1
    19     6     7    1
    20     7     8    1
    21     7     9    1
    22    13    14    1
    23    14    15    2
    24    14    16    2
    25    14    17    1
    26    17    18   ar
    27    18    19   ar
    28    19    20   ar
    29    20    23    1
    30    23    24    3
    31    20    21   ar
    32    21    22   ar
    33     8     1    1
    34    22    17   ar
    35     9     3    1
    36    31    26   ar
@<TRIPOS>MOLECULE
*****
 33 36 0 0 0
SMALL
GASTEIGER

@<TRIPOS>ATOM
      1 N         138.4676  139.9866  158.5678 N.3     1  UNL1       -0.2673
      2 C         139.7350  139.2208  158.8067 C.3     1  UNL1        0.1035
      3 C         139.9859  138.5835  160.1412 C.3     1  UNL1        0.1470
      4 C         140.2369  137.9461  161.4757 C.3     1  UNL1        0.1037
      5 N         139.2204  138.0746  162.5712 N.3     1  UNL1       -0.2647
      6 C         137.9529  138.8405  162.3322 C.3     1  UNL1        0.1037
      7 C         137.7020  139.4778  160.9978 C.3     1  UNL1        0.1470
      8 C         137.4511  140.1151  159.6633 C.3     1  UNL1        0.1035
      9 O         138.9694  138.7120  161.2367 O.3     1  UNL1       -0.3530
     10 C         138.2167  140.6240  157.2333 C.3     1  UNL1        0.0916
     11 C         136.8346  141.0770  156.8665 C.3     1  UNL1        0.1131
     12 C         136.7655  139.7266  154.6480 C.3     1  UNL1        0.1149
     13 N         136.0555  140.3365  155.8201 N.3     1  UNL1       -0.1526
     14 S         134.5665  140.2060  155.9459 S.O2    1  UNL1        0.0634
     15 O         134.7231  139.8039  157.3825 O.2     1  UNL1       -0.1528
     16 O         134.4099  140.6082  154.5093 O.2     1  UNL1       -0.1528
     17 C         133.0775  140.0755  156.0717 C.ar    1  UNL1        0.1222
     18 C         132.4803  138.8274  156.6508 C.ar    1  UNL1        0.0206
     19 C         130.9913  138.6969  156.7766 C.ar    1  UNL1        0.0116
     20 C         130.0995  139.8145  156.3232 C.ar    1  UNL1        0.0685
     21 C         130.6967  141.0627  155.7440 C.ar    1  UNL1        0.0116
     22 C         132.1857  141.1932  155.6182 C.ar    1  UNL1        0.0206
     23 C         128.6105  139.6840  156.4490 C.1     1  UNL1        0.1004
     24 N         127.1215  139.5535  156.5748 N.1     1  UNL1       -0.1908
     25 C         139.4713  137.4373  163.9057 C.3     1  UNL1        0.0993
     26 C         139.5100  138.2818  165.1448 C.ar    1  UNL1       -0.0061
     27 C         140.7188  139.1176  165.4454 C.ar    1  UNL1       -0.0022
     28 C         140.7575  139.9621  166.6844 C.ar    1  UNL1        0.0100
     29 C         139.5874  139.9708  167.6229 C.ar    1  UNL1        0.0684
     30 C         138.3786  139.1351  167.3224 C.ar    1  UNL1        0.0100
     31 C         138.3399  138.2906  166.0833 C.ar    1  UNL1       -0.0022
     32 C         139.6261  140.8154  168.8620 C.1     1  UNL1        0.1004
     33 N         139.6647  141.6599  170.1011 N.1     1  UNL1       -0.1908
@<TRIPOS>BOND
     1    12    13    1
     2    13    11    1
     3    11    10    1
     4    10     1    1
     5     1     2    1
     6     2     3    1
     7     3     4    1
     8     4     5    1
     9     5    25    1
    10    25    26    1
    11    26    27   ar
    12    27    28   ar
    13    28    29   ar
    14    29    32    1
    15    32    33    3
    16    29    30   ar
    17    30    31   ar
    18     5     6    1
    19     6     7    1
    20     7     8    1
    21     7     9    1
    22    13    14    1
    23    14    15    2
    24    14    16    2
    25    14    17    1
    26    17    18   ar
    27    18    19   ar
    28    19    20   ar
    29    20    23    1
    30    23    24    3
    31    20    21   ar
    32    21    22   ar
    33     8     1    1
    34    22    17   ar
    35     9     3    1
    36    31    26   ar
@<TRIPOS>MOLECULE
*****
 33 36 0 0 0
SMALL
GASTEIGER

@<TRIPOS>ATOM
      1 N         141.6319  143.5935  160.3485 N.3     1  UNL1       -0.2673
      2 C         141.3833  144.6484  161.3855 C.3     1  UNL1        0.1035
      3 C         141.9152  144.4724  162.7769 C.3     1  UNL1        0.1470
      4 C         142.4471  144.2963  164.1684 C.3     1  UNL1        0.1037
      5 N         143.2275  143.0654  164.5229 N.3     1  UNL1       -0.2647
      6 C         143.4760  142.0104  163.4859 C.3     1  UNL1        0.1037
      7 C         142.9441  142.1864  162.0944 C.3     1  UNL1        0.1470
      8 C         142.4123  142.3625  160.7030 C.3     1  UNL1        0.1035
      9 O         142.6956  143.2414  163.1314 O.3     1  UNL1       -0.3530
     10 C         141.1000  143.7695  158.9570 C.3     1  UNL1        0.0916
     11 C         139.6230  143.8980  158.7293 C.3     1  UNL1        0.1131
     12 C         137.9704  142.1609  157.7285 C.3     1  UNL1        0.1149
     13 N         138.7309  142.7044  158.9016 N.3     1  UNL1       -0.1526
     14 S         138.5994  142.0543  160.2470 S.O2    1  UNL1        0.0634
     15 O         139.1261  140.7702  159.6780 O.2     1  UNL1       -0.1528
     16 O         138.0727  143.3384  160.8159 O.2     1  UNL1       -0.1528
     17 C         138.4679  141.4042  161.5924 C.ar    1  UNL1        0.1222
     18 C         138.2538  142.2468  162.8148 C.ar    1  UNL1        0.0206
     19 C         138.1223  141.5967  164.1602 C.ar    1  UNL1        0.0116
     20 C         138.2048  140.1040  164.2832 C.ar    1  UNL1        0.0685
     21 C         138.4189  139.2614  163.0608 C.ar    1  UNL1        0.0116
     22 C         138.5504  139.9115  161.7154 C.ar    1  UNL1        0.0206
     23 C         138.0733  139.4540  165.6286 C.1     1  UNL1        0.1004
     24 N         137.9418  138.8039  166.9740 N.1     1  UNL1       -0.1908
     25 C         143.7593  142.8893  165.9143 C.3     1  UNL1        0.0993
     26 C         142.9159  142.2236  166.9610 C.ar    1  UNL1       -0.0061
     27 C         141.6329  141.5500  166.5736 C.ar    1  UNL1       -0.0022
     28 C         140.7894  140.8844  167.6202 C.ar    1  UNL1        0.0100
     29 C         141.2290  140.8923  169.0543 C.ar    1  UNL1        0.0684
     30 C         142.5121  141.5659  169.4417 C.ar    1  UNL1        0.0100
     31 C         143.3555  142.2316  168.3951 C.ar    1  UNL1       -0.0022
     32 C         140.3856  140.2266  170.1010 C.1     1  UNL1        0.1004
     33 N         139.5422  139.5610  171.1477 N.1     1  UNL1       -0.1908
@<TRIPOS>BOND
     1    12    13    1
     2    13    11    1
     3    11    10    1
     4    10     1    1
     5     1     2    1
     6     2     3    1
     7     3     4    1
     8     4     5    1
     9     5    25    1
    10    25    26    1
    11    26    27   ar
    12    27    28   ar
    13    28    29   ar
    14    29    32    1
    15    32    33    3
    16    29    30   ar
    17    30    31   ar
    18     5     6    1
    19     6     7    1
    20     7     8    1
    21     7     9    1
    22    13    14    1
    23    14    15    2
    24    14    16    2
    25    14    17    1
    26    17    18   ar
    27    18    19   ar
    28    19    20   ar
    29    20    23    1
    30    23    24    3
    31    20    21   ar
    32    21    22   ar
    33     8     1    1
    34    22    17   ar
    35     9     3    1
    36    31    26   ar
@<TRIPOS>MOLECULE
*****
 33 36 0 0 0
SMALL
GASTEIGER

@<TRIPOS>ATOM
      1 N         139.8800  141.3239  159.0120 N.3     1  UNL1       -0.2673
      2 C         141.0535  140.5785  159.5753 C.3     1  UNL1        0.1035
      3 C         140.8853  139.7311  160.8015 C.3     1  UNL1        0.1470
      4 C         140.7171  138.8837  162.0278 C.3     1  UNL1        0.1037
      5 N         139.3754  138.7818  162.6908 N.3     1  UNL1       -0.2647
      6 C         138.2019  139.5273  162.1274 C.3     1  UNL1        0.1037
      7 C         138.3701  140.3746  160.9012 C.3     1  UNL1        0.1470
      8 C         138.5384  141.2219  159.6750 C.3     1  UNL1        0.1035
      9 O         139.5436  139.6292  161.4645 O.3     1  UNL1       -0.3530
     10 C         140.0482  142.1713  157.7858 C.3     1  UNL1        0.0916
     11 C         139.4477  143.5449  157.7352 C.3     1  UNL1        0.1131
     12 C         140.2010  146.0241  157.5451 C.3     1  UNL1        0.1149
     13 N         140.2089  144.7168  158.2805 N.3     1  UNL1       -0.1526
     14 S         140.9780  144.5813  159.5612 S.O2    1  UNL1        0.0634
     15 O         139.6904  144.5270  160.3287 O.2     1  UNL1       -0.1528
     16 O         142.2656  144.6355  158.7937 O.2     1  UNL1       -0.1528
     17 C         141.7471  144.4458  160.8418 C.ar    1  UNL1        0.1222
     18 C         141.3000  145.1866  162.0671 C.ar    1  UNL1        0.0206
     19 C         142.0691  145.0511  163.3478 C.ar    1  UNL1        0.0116
     20 C         143.2852  144.1748  163.4032 C.ar    1  UNL1        0.0685
     21 C         143.7324  143.4339  162.1779 C.ar    1  UNL1        0.0116
     22 C         142.9633  143.5694  160.8972 C.ar    1  UNL1        0.0206
     23 C         144.0543  144.0393  164.6839 C.1     1  UNL1        0.1004
     24 N         144.8234  143.9038  165.9646 N.1     1  UNL1       -0.1908
     25 C         139.2072  137.9344  163.9170 C.3     1  UNL1        0.0993
     26 C         139.2564  138.5652  165.2771 C.ar    1  UNL1       -0.0061
     27 C         140.4893  139.2950  165.7212 C.ar    1  UNL1       -0.0022
     28 C         140.5386  139.9258  167.0812 C.ar    1  UNL1        0.0100
     29 C         139.3549  139.8267  167.9971 C.ar    1  UNL1        0.0684
     30 C         138.1220  139.0969  167.5531 C.ar    1  UNL1        0.0100
     31 C         138.0727  138.4661  166.1930 C.ar    1  UNL1       -0.0022
     32 C         139.4041  140.4574  169.3572 C.1     1  UNL1        0.1004
     33 N         139.4534  141.0881  170.7173 N.1     1  UNL1       -0.1908
@<TRIPOS>BOND
     1    12    13    1
     2    13    11    1
     3    11    10    1
     4    10     1    1
     5     1     2    1
     6     2     3    1
     7     3     4    1
     8     4     5    1
     9     5    25    1
    10    25    26    1
    11    26    27   ar
    12    27    28   ar
    13    28    29   ar
    14    29    32    1
    15    32    33    3
    16    29    30   ar
    17    30    31   ar
    18     5     6    1
    19     6     7    1
    20     7     8    1
    21     7     9    1
    22    13    14    1
    23    14    15    2
    24    14    16    2
    25    14    17    1
    26    17    18   ar
    27    18    19   ar
    28    19    20   ar
    29    20    23    1
    30    23    24    3
    31    20    21   ar
    32    21    22   ar
    33     8     1    1
    34    22    17   ar
    35     9     3    1
    36    31    26   ar
@<TRIPOS>MOLECULE
*****
 33 36 0 0 0
SMALL
GASTEIGER

@<TRIPOS>ATOM
      1 N         143.0343  139.1599  160.9989 N.3     1  UNL1       -0.2673
      2 C         142.0978  138.2389  161.7232 C.3     1  UNL1        0.1035
      3 C         142.1574  138.1325  163.2182 C.3     1  UNL1        0.1470
      4 C         142.2169  138.0261  164.7133 C.3     1  UNL1        0.1037
      5 N         143.2131  138.8407  165.4840 N.3     1  UNL1       -0.2647
      6 C         144.1497  139.7617  164.7597 C.3     1  UNL1        0.1037
      7 C         144.0901  139.8681  163.2647 C.3     1  UNL1        0.1470
      8 C         144.0305  139.9744  161.7697 C.3     1  UNL1        0.1035
      9 O         143.1535  138.9471  163.9889 O.3     1  UNL1       -0.3530
     10 C         142.9748  139.2663  159.5038 C.3     1  UNL1        0.0916
     11 C         142.1090  140.3084  158.8600 C.3     1  UNL1        0.1131
     12 C         139.6290  139.6691  158.4233 C.3     1  UNL1        0.1149
     13 N         140.6578  140.4085  159.2262 N.3     1  UNL1       -0.1526
     14 S         140.2355  141.2481  160.3953 S.O2    1  UNL1        0.0634
     15 O         141.2192  142.3059  159.9909 O.2     1  UNL1       -0.1528
     16 O         139.2519  140.1903  160.7996 O.2     1  UNL1       -0.1528
     17 C         139.8132  142.0877  161.5644 C.ar    1  UNL1        0.1222
     18 C         138.4640  142.7429  161.5687 C.ar    1  UNL1        0.0206
     19 C         138.0417  143.5825  162.7378 C.ar    1  UNL1        0.0116
     20 C         138.9686  143.7668  163.9026 C.ar    1  UNL1        0.0685
     21 C         140.3180  143.1115  163.8983 C.ar    1  UNL1        0.0116
     22 C         140.7403  142.2720  162.7292 C.ar    1  UNL1        0.0206
     23 C         138.5464  144.6064  165.0717 C.1     1  UNL1        0.1004
     24 N         138.1241  145.4460  166.2408 N.1     1  UNL1       -0.1908
     25 C         143.2727  138.7343  166.9790 C.3     1  UNL1        0.0993
     26 C         142.4526  139.6581  167.8300 C.ar    1  UNL1       -0.0061
     27 C         141.8576  140.8985  167.2320 C.ar    1  UNL1       -0.0022
     28 C         141.0376  141.8223  168.0829 C.ar    1  UNL1        0.0100
     29 C         140.8126  141.5058  169.5317 C.ar    1  UNL1        0.0684
     30 C         141.4076  140.2654  170.1297 C.ar    1  UNL1        0.0100
     31 C         142.2276  139.3416  169.2788 C.ar    1  UNL1       -0.0022
     32 C         139.9925  142.4296  170.3827 C.1     1  UNL1        0.1004
     33 N         139.1725  143.3534  171.2336 N.1     1  UNL1       -0.1908
@<TRIPOS>BOND
     1    12    13    1
     2    13    11    1
     3    11    10    1
     4    10     1    1
     5     1     2    1
     6     2     3    1
     7     3     4    1
     8     4     5    1
     9     5    25    1
    10    25    26    1
    11    26    27   ar
    12    27    28   ar
    13    28    29   ar
    14    29    32    1
    15    32    33    3
    16    29    30   ar
    17    30    31   ar
    18     5     6    1
    19     6     7    1
    20     7     8    1
    21     7     9    1
    22    13    14    1
    23    14    15    2
    24    14    16    2
    25    14    17    1
    26    17    18   ar
    27    18    19   ar
    28    19    20   ar
    29    20    23    1
    30    23    24    3
    31    20    21   ar
    32    21    22   ar
    33     8     1    1
    34    22    17   ar
    35     9     3    1
    36    31    26   ar
@<TRIPOS>MOLECULE
*****
 33 36 0 0 0
SMALL
GASTEIGER

@<TRIPOS>ATOM
      1 N         140.8662  141.0615  159.5004 N.3     1  UNL1       -0.2673
      2 C         141.3717  139.6860  159.8203 C.3     1  UNL1        0.1035
      3 C         140.8789  138.9716  161.0438 C.3     1  UNL1        0.1470
      4 C         140.3861  138.2572  162.2672 C.3     1  UNL1        0.1037
      5 N         139.3877  138.9184  163.1707 N.3     1  UNL1       -0.2647
      6 C         138.8822  140.2939  162.8506 C.3     1  UNL1        0.1037
      7 C         139.3750  141.0083  161.6272 C.3     1  UNL1        0.1470
      8 C         139.8678  141.7226  160.4038 C.3     1  UNL1        0.1035
      9 O         139.8805  139.6328  161.9472 O.3     1  UNL1       -0.3530
     10 C         141.3590  141.7759  158.2769 C.3     1  UNL1        0.0916
     11 C         142.3017  142.9345  158.4137 C.3     1  UNL1        0.1131
     12 C         144.8845  142.6562  158.4590 C.3     1  UNL1        0.1149
     13 N         143.5779  142.7760  159.1859 N.3     1  UNL1       -0.1526
     14 S         143.5474  142.7373  160.6851 S.O2    1  UNL1        0.0634
     15 O         144.3079  141.4445  160.6672 O.2     1  UNL1       -0.1528
     16 O         142.7870  144.0301  160.7030 O.2     1  UNL1       -0.1528
     17 C         143.5170  142.6986  162.1843 C.ar    1  UNL1        0.1222
     18 C         144.1308  143.8149  162.9760 C.ar    1  UNL1        0.0206
     19 C         144.1003  143.7762  164.4752 C.ar    1  UNL1        0.0116
     20 C         143.4560  142.6212  165.1827 C.ar    1  UNL1        0.0685
     21 C         142.8421  141.5047  164.3910 C.ar    1  UNL1        0.0116
     22 C         142.8726  141.5434  162.8918 C.ar    1  UNL1        0.0206
     23 C         143.4255  142.5825  166.6819 C.1     1  UNL1        0.1004
     24 N         143.3950  142.5437  168.1811 N.1     1  UNL1       -0.1908
     25 C         138.8949  138.2040  164.3941 C.3     1  UNL1        0.0993
     26 C         139.1214  138.7990  165.7523 C.ar    1  UNL1       -0.0061
     27 C         138.0239  138.7739  166.7746 C.ar    1  UNL1       -0.0022
     28 C         138.2504  139.3689  168.1328 C.ar    1  UNL1        0.0100
     29 C         139.5742  139.9890  168.4687 C.ar    1  UNL1        0.0684
     30 C         140.6716  140.0141  167.4464 C.ar    1  UNL1        0.0100
     31 C         140.4452  139.4191  166.0882 C.ar    1  UNL1       -0.0022
     32 C         139.8007  140.5840  169.8269 C.1     1  UNL1        0.1004
     33 N         140.0271  141.1790  171.1851 N.1     1  UNL1       -0.1908
@<TRIPOS>BOND
     1    12    13    1
     2    13    11    1
     3    11    10    1
     4    10     1    1
     5     1     2    1
     6     2     3    1
     7     3     4    1
     8     4     5    1
     9     5    25    1
    10    25    26    1
    11    26    27   ar
    12    27    28   ar
    13    28    29   ar
    14    29    32    1
    15    32    33    3
    16    29    30   ar
    17    30    31   ar
    18     5     6    1
    19     6     7    1
    20     7     8    1
    21     7     9    1
    22    13    14    1
    23    14    15    2
    24    14    16    2
    25    14    17    1
    26    17    18   ar
    27    18    19   ar
    28    19    20   ar
    29    20    23    1
    30    23    24    3
    31    20    21   ar
    32    21    22   ar
    33     8     1    1
    34    22    17   ar
    35     9     3    1
    36    31    26   ar
