@<TRIPOS>MOLECULE
*****
 37 40 0 0 0
SMALL
GASTEIGER

@<TRIPOS>ATOM
      1 C         140.4179  141.1308  161.0068 C.2     1  UNL1        0.1397
      2 C         140.6327  140.2950  159.7799 C.2     1  UNL1        0.1355
      3 N         139.6971  140.4198  158.6141 N.pl3   1  UNL1       -0.1998
      4 C         138.5467  141.3803  158.6752 C.2     1  UNL1        0.3442
      5 N         138.3318  142.2161  159.9021 N.2     1  UNL1       -0.0580
      6 C         139.2674  142.0913  161.0679 C.3     1  UNL1        0.2692
      7 H         139.8382  139.8712  157.8089 H       1  UNL1        0.2983
      8 C         139.0525  142.9271  162.2948 C.ar    1  UNL1        0.0371
      9 C         139.6930  144.2792  162.4028 C.ar    1  UNL1        0.0030
     10 C         139.4781  145.1150  163.6297 C.ar    1  UNL1        0.0295
     11 C         138.6227  144.5988  164.7486 C.ar    1  UNL1        0.1406
     12 F         138.4079  145.4346  165.9754 F       1  UNL1       -0.2042
     13 C         137.9822  143.2467  164.6406 C.ar    1  UNL1        0.0362
     14 C         138.1971  142.4109  163.4136 C.ar    1  UNL1        0.0372
     15 BR        137.5566  141.0588  163.3056 Br      1  UNL1       -0.0491
     16 C         137.6111  141.5051  157.5094 C.ar    1  UNL1        0.1927
     17 N         136.4922  140.5647  157.1722 N.ar    1  UNL1       -0.2351
     18 C         135.8197  141.0706  155.9305 C.ar    1  UNL1        0.0775
     19 C         136.5230  142.3236  155.5002 C.ar    1  UNL1        0.0524
     20 S         137.6301  142.5922  156.4760 S.2     1  UNL1       -0.0590
     21 C         134.6494  140.4349  155.2403 C.3     1  UNL1        0.1556
     22 C         133.4782  139.9504  156.0425 C.2     1  UNL1        0.3232
     23 O         132.2197  140.7646  156.0993 O.2     1  UNL1       -0.2497
     24 O         133.5656  138.6517  156.7879 O.3     1  UNL1       -0.4441
     25 C         133.1020  138.5718  158.2123 C.3     1  UNL1        0.2556
     26 C         141.3534  141.0060  162.1726 C.2     1  UNL1        0.3447
     27 O         141.1810  139.8867  163.1562 O.2     1  UNL1       -0.2450
     28 O         142.4615  142.0005  162.3548 O.3     1  UNL1       -0.4455
     29 C         141.9855  142.6715  164.8193 C.3     1  UNL1        0.0513
     30 C         142.9592  142.3247  163.7322 C.3     1  UNL1        0.2089
     31 C         141.7832  139.3344  159.7188 C.3     1  UNL1        0.1405
     32 N         142.6392  139.2666  158.4889 N.3     1  UNL1       -0.2617
     33 C         143.6198  140.3633  158.1963 C.3     1  UNL1        0.1050
     34 C         144.4758  140.2955  156.9663 C.3     1  UNL1        0.1595
     35 O         144.3511  139.1311  156.0290 O.3     1  UNL1       -0.3508
     36 C         143.3705  138.0344  156.3217 C.3     1  UNL1        0.1595
     37 C         142.5145  138.1021  157.5516 C.3     1  UNL1        0.1050
@<TRIPOS>BOND
     1    29    30    1
     2    30    28    1
     3    28    26    1
     4    26    27    2
     5    26     1    1
     6     1     2    2
     7     2    31    1
     8    31    32    1
     9    32    33    1
    10    33    34    1
    11    34    35    1
    12    35    36    1
    13    36    37    1
    14     2     3    1
    15     3     4    1
    16     4    16    1
    17    16    17   ar
    18    17    18   ar
    19    18    21    1
    20    21    22    1
    21    22    23    2
    22    22    24    1
    23    24    25    1
    24    18    19   ar
    25    19    20   ar
    26     4     5    2
    27     5     6    1
    28     6     8    1
    29     8     9   ar
    30     9    10   ar
    31    10    11   ar
    32    11    12    1
    33    11    13   ar
    34    13    14   ar
    35    14    15    1
    36     6     1    1
    37    14     8   ar
    38    37    32    1
    39    20    16   ar
    40     3     7    1
@<TRIPOS>MOLECULE
*****
 37 40 0 0 0
SMALL
GASTEIGER

@<TRIPOS>ATOM
      1 C         142.2338  141.0784  161.6251 C.2     1  UNL1        0.1397
      2 C         141.8331  141.5245  160.2502 C.2     1  UNL1        0.1355
      3 N         141.7662  140.5304  159.1289 N.pl3   1  UNL1       -0.1998
      4 C         142.1000  139.0902  159.3825 C.2     1  UNL1        0.3442
      5 N         142.5007  138.6441  160.7574 N.2     1  UNL1       -0.0580
      6 C         142.5676  139.6383  161.8787 C.3     1  UNL1        0.2692
      7 H         141.5032  140.8232  158.2265 H       1  UNL1        0.2983
      8 C         142.9683  139.1921  163.2537 C.ar    1  UNL1        0.0371
      9 C         144.3866  139.3587  163.7126 C.ar    1  UNL1        0.0030
     10 C         144.7874  138.9126  165.0875 C.ar    1  UNL1        0.0295
     11 C         143.7698  138.2998  166.0035 C.ar    1  UNL1        0.1406
     12 F         144.1705  137.8537  167.3784 F       1  UNL1       -0.2042
     13 C         142.3515  138.1332  165.5446 C.ar    1  UNL1        0.0362
     14 C         141.9507  138.5793  164.1696 C.ar    1  UNL1        0.0372
     15 BR        140.5324  138.4127  163.7107 Br      1  UNL1       -0.0491
     16 C         142.0331  138.0961  158.2612 C.ar    1  UNL1        0.1927
     17 N         143.0109  136.9876  158.0063 N.ar    1  UNL1       -0.2351
     18 C         142.5588  136.2423  156.7855 C.ar    1  UNL1        0.0775
     19 C         141.3016  136.8903  156.2860 C.ar    1  UNL1        0.0524
     20 S         140.9767  138.0360  157.1980 S.2     1  UNL1       -0.0590
     21 C         143.2437  135.0572  156.1720 C.3     1  UNL1        0.1556
     22 C         143.3275  133.7647  156.9286 C.2     1  UNL1        0.3232
     23 O         142.3216  132.6811  156.6758 O.2     1  UNL1       -0.2497
     24 O         144.4171  133.5560  157.9381 O.3     1  UNL1       -0.4441
     25 C         145.1989  132.2757  157.9438 C.3     1  UNL1        0.2556
     26 C         142.3007  142.0726  162.7464 C.2     1  UNL1        0.3447
     27 O         143.4714  143.0041  162.8540 O.2     1  UNL1       -0.2450
     28 O         141.1968  142.1351  163.7601 O.3     1  UNL1       -0.4455
     29 C         139.7122  143.6138  165.2961 C.3     1  UNL1        0.0513
     30 C         141.0163  143.3666  164.5972 C.3     1  UNL1        0.2089
     31 C         141.4993  142.9648  159.9965 C.3     1  UNL1        0.1405
     32 N         140.4170  143.6348  160.7900 N.3     1  UNL1       -0.2617
     33 C         139.1543  142.8922  161.1126 C.3     1  UNL1        0.1050
     34 C         138.0719  143.5623  161.9061 C.3     1  UNL1        0.1595
     35 O         138.2523  144.9749  162.3770 O.3     1  UNL1       -0.3508
     36 C         139.5150  145.7176  162.0544 C.3     1  UNL1        0.1595
     37 C         140.5973  145.0476  161.2609 C.3     1  UNL1        0.1050
@<TRIPOS>BOND
     1    29    30    1
     2    30    28    1
     3    28    26    1
     4    26    27    2
     5    26     1    1
     6     1     2    2
     7     2    31    1
     8    31    32    1
     9    32    33    1
    10    33    34    1
    11    34    35    1
    12    35    36    1
    13    36    37    1
    14     2     3    1
    15     3     4    1
    16     4    16    1
    17    16    17   ar
    18    17    18   ar
    19    18    21    1
    20    21    22    1
    21    22    23    2
    22    22    24    1
    23    24    25    1
    24    18    19   ar
    25    19    20   ar
    26     4     5    2
    27     5     6    1
    28     6     8    1
    29     8     9   ar
    30     9    10   ar
    31    10    11   ar
    32    11    12    1
    33    11    13   ar
    34    13    14   ar
    35    14    15    1
    36     6     1    1
    37    14     8   ar
    38    37    32    1
    39    20    16   ar
    40     3     7    1
@<TRIPOS>MOLECULE
*****
 37 40 0 0 0
SMALL
GASTEIGER

@<TRIPOS>ATOM
      1 C         140.5301  141.1786  161.1025 C.2     1  UNL1        0.1397
      2 C         140.7567  140.3606  159.8659 C.2     1  UNL1        0.1355
      3 N         139.8205  140.4872  158.7008 N.pl3   1  UNL1       -0.1998
      4 C         138.6575  141.4319  158.7724 C.2     1  UNL1        0.3442
      5 N         138.4309  142.2499  160.0091 N.2     1  UNL1       -0.0580
      6 C         139.3672  142.1233  161.1742 C.3     1  UNL1        0.2692
      7 H         139.9692  139.9503  157.8891 H       1  UNL1        0.2983
      8 C         139.1405  142.9414  162.4109 C.ar    1  UNL1        0.0371
      9 C         138.2615  142.4160  163.5070 C.ar    1  UNL1        0.0030
     10 C         138.0348  143.2340  164.7436 C.ar    1  UNL1        0.0295
     11 C         138.6871  144.5774  164.8843 C.ar    1  UNL1        0.1406
     12 F         138.4603  145.3954  166.1210 F       1  UNL1       -0.2042
     13 C         139.5661  145.1028  163.7883 C.ar    1  UNL1        0.0362
     14 C         139.7928  144.2847  162.5515 C.ar    1  UNL1        0.0372
     15 BR        140.6718  144.8101  161.4555 Br      1  UNL1       -0.0491
     16 C         137.7213  141.5586  157.6074 C.ar    1  UNL1        0.1927
     17 N         136.6567  140.5752  157.2208 N.ar    1  UNL1       -0.2351
     18 C         135.9626  141.0997  155.9988 C.ar    1  UNL1        0.0775
     19 C         136.5983  142.4073  155.6301 C.ar    1  UNL1        0.0524
     20 S         137.6852  142.6909  156.6243 S.2     1  UNL1       -0.0590
     21 C         134.8315  140.4335  155.2730 C.3     1  UNL1        0.1556
     22 C         133.6178  139.9813  156.0296 C.2     1  UNL1        0.3232
     23 O         132.3846  140.8351  156.0485 O.2     1  UNL1       -0.2497
     24 O         133.6373  138.6754  156.7672 O.3     1  UNL1       -0.4441
     25 C         132.9907  138.5664  158.1164 C.3     1  UNL1        0.2556
     26 C         141.4663  141.0519  162.2676 C.2     1  UNL1        0.3447
     27 O         141.1557  140.0933  163.3786 O.2     1  UNL1       -0.2450
     28 O         142.7132  141.8839  162.3216 O.3     1  UNL1       -0.4455
     29 C         145.2662  141.7873  162.7941 C.3     1  UNL1        0.0513
     30 C         144.0519  141.2442  162.1008 C.3     1  UNL1        0.2089
     31 C         141.9197  139.4158  159.7942 C.3     1  UNL1        0.1405
     32 N         142.7635  139.3577  158.5555 N.3     1  UNL1       -0.2617
     33 C         143.7581  140.4447  158.2738 C.3     1  UNL1        0.1050
     34 C         144.6020  140.3865  157.0350 C.3     1  UNL1        0.1595
     35 O         144.4512  139.2415  156.0779 O.3     1  UNL1       -0.3508
     36 C         143.4566  138.1546  156.3595 C.3     1  UNL1        0.1595
     37 C         142.6128  138.2127  157.5983 C.3     1  UNL1        0.1050
@<TRIPOS>BOND
     1    29    30    1
     2    30    28    1
     3    28    26    1
     4    26    27    2
     5    26     1    1
     6     1     2    2
     7     2    31    1
     8    31    32    1
     9    32    33    1
    10    33    34    1
    11    34    35    1
    12    35    36    1
    13    36    37    1
    14     2     3    1
    15     3     4    1
    16     4    16    1
    17    16    17   ar
    18    17    18   ar
    19    18    21    1
    20    21    22    1
    21    22    23    2
    22    22    24    1
    23    24    25    1
    24    18    19   ar
    25    19    20   ar
    26     4     5    2
    27     5     6    1
    28     6     8    1
    29     8     9   ar
    30     9    10   ar
    31    10    11   ar
    32    11    12    1
    33    11    13   ar
    34    13    14   ar
    35    14    15    1
    36     6     1    1
    37    14     8   ar
    38    37    32    1
    39    20    16   ar
    40     3     7    1
@<TRIPOS>MOLECULE
*****
 37 40 0 0 0
SMALL
GASTEIGER

@<TRIPOS>ATOM
      1 C         142.1920  140.3828  161.2784 C.2     1  UNL1        0.1397
      2 C         142.9876  140.9077  160.1202 C.2     1  UNL1        0.1355
      3 N         143.2484  140.0314  158.9310 N.pl3   1  UNL1       -0.1998
      4 C         142.7137  138.6303  158.9001 C.2     1  UNL1        0.3442
      5 N         141.9181  138.1055  160.0583 N.2     1  UNL1       -0.0580
      6 C         141.6573  138.9818  161.2475 C.3     1  UNL1        0.2692
      7 H         143.7706  140.3759  158.1708 H       1  UNL1        0.2983
      8 C         140.8617  138.4569  162.4058 C.ar    1  UNL1        0.0371
      9 C         141.5588  137.7846  163.5513 C.ar    1  UNL1        0.0030
     10 C         140.7633  137.2598  164.7095 C.ar    1  UNL1        0.0295
     11 C         139.2705  137.4071  164.7223 C.ar    1  UNL1        0.1406
     12 F         138.4750  136.8822  165.8806 F       1  UNL1       -0.2042
     13 C         138.5734  138.0794  163.5769 C.ar    1  UNL1        0.0362
     14 C         139.3690  138.6043  162.4186 C.ar    1  UNL1        0.0372
     15 BR        138.6719  139.2765  161.2731 Br      1  UNL1       -0.0491
     16 C         142.9745  137.7541  157.7109 C.ar    1  UNL1        0.1927
     17 N         143.2306  136.2765  157.7437 N.ar    1  UNL1       -0.2351
     18 C         143.4394  135.8108  156.3332 C.ar    1  UNL1        0.0775
     19 C         143.3123  137.0006  155.4286 C.ar    1  UNL1        0.0524
     20 S         143.0249  138.2016  156.2801 S.2     1  UNL1       -0.0590
     21 C         143.7251  134.4025  155.9028 C.3     1  UNL1        0.1556
     22 C         143.6898  133.2895  156.9077 C.2     1  UNL1        0.3232
     23 O         144.8100  133.1326  157.8929 O.2     1  UNL1       -0.2497
     24 O         142.5343  132.3333  156.9274 O.3     1  UNL1       -0.4441
     25 C         142.2285  131.5014  155.7171 C.3     1  UNL1        0.2556
     26 C         141.9312  141.2591  162.4676 C.2     1  UNL1        0.3447
     27 O         140.6956  142.1080  162.5172 O.2     1  UNL1       -0.2450
     28 O         142.9061  141.2865  163.6073 O.3     1  UNL1       -0.4455
     29 C         145.4982  141.4614  163.5859 C.3     1  UNL1        0.0513
     30 C         144.2507  140.6381  163.4599 C.3     1  UNL1        0.2089
     31 C         143.5224  142.3088  160.1511 C.3     1  UNL1        0.1405
     32 N         142.7786  143.4109  159.4569 N.3     1  UNL1       -0.2617
     33 C         141.8436  144.2899  160.2335 C.3     1  UNL1        0.1050
     34 C         141.0998  145.3921  159.5392 C.3     1  UNL1        0.1595
     35 O         141.2911  145.6153  158.0683 O.3     1  UNL1       -0.3508
     36 C         142.2261  144.7363  157.2916 C.3     1  UNL1        0.1595
     37 C         142.9699  143.6342  157.9859 C.3     1  UNL1        0.1050
@<TRIPOS>BOND
     1    29    30    1
     2    30    28    1
     3    28    26    1
     4    26    27    2
     5    26     1    1
     6     1     2    2
     7     2    31    1
     8    31    32    1
     9    32    33    1
    10    33    34    1
    11    34    35    1
    12    35    36    1
    13    36    37    1
    14     2     3    1
    15     3     4    1
    16     4    16    1
    17    16    17   ar
    18    17    18   ar
    19    18    21    1
    20    21    22    1
    21    22    23    2
    22    22    24    1
    23    24    25    1
    24    18    19   ar
    25    19    20   ar
    26     4     5    2
    27     5     6    1
    28     6     8    1
    29     8     9   ar
    30     9    10   ar
    31    10    11   ar
    32    11    12    1
    33    11    13   ar
    34    13    14   ar
    35    14    15    1
    36     6     1    1
    37    14     8   ar
    38    37    32    1
    39    20    16   ar
    40     3     7    1
@<TRIPOS>MOLECULE
*****
 37 40 0 0 0
SMALL
GASTEIGER

@<TRIPOS>ATOM
      1 C         139.9721  144.1190  159.8185 C.2     1  UNL1        0.1397
      2 C         140.0065  144.4671  158.3599 C.2     1  UNL1        0.1355
      3 N         139.2955  143.5990  157.3646 N.pl3   1  UNL1       -0.1998
      4 C         138.5500  142.3826  157.8278 C.2     1  UNL1        0.3442
      5 N         138.5155  142.0344  159.2864 N.2     1  UNL1       -0.0580
      6 C         139.2266  142.9026  160.2817 C.3     1  UNL1        0.2692
      7 H         139.3181  143.8275  156.4072 H       1  UNL1        0.2983
      8 C         139.1921  142.5544  161.7404 C.ar    1  UNL1        0.0371
      9 C         138.0899  143.0805  162.6112 C.ar    1  UNL1        0.0030
     10 C         138.0554  142.7323  164.0698 C.ar    1  UNL1        0.0295
     11 C         139.1232  141.8579  164.6577 C.ar    1  UNL1        0.1406
     12 F         139.0886  141.5097  166.1162 F       1  UNL1       -0.2042
     13 C         140.2254  141.3318  163.7868 C.ar    1  UNL1        0.0362
     14 C         140.2599  141.6801  162.3282 C.ar    1  UNL1        0.0372
     15 BR        141.3621  141.1540  161.4574 Br      1  UNL1       -0.0491
     16 C         137.8389  141.5144  156.8325 C.ar    1  UNL1        0.1927
     17 N         136.3526  141.3960  156.6689 N.ar    1  UNL1       -0.2351
     18 C         136.0844  140.4206  155.5613 C.ar    1  UNL1        0.0775
     19 C         137.4050  139.9362  155.0404 C.ar    1  UNL1        0.0524
     20 S         138.4893  140.6122  155.8260 S.2     1  UNL1       -0.0590
     21 C         134.7329  140.0030  155.0623 C.3     1  UNL1        0.1556
     22 C         133.6047  139.8035  156.0304 C.2     1  UNL1        0.3232
     23 O         133.6201  138.6338  156.9694 O.2     1  UNL1       -0.2497
     24 O         132.4611  140.7737  156.0596 O.3     1  UNL1       -0.4441
     25 C         131.0926  140.3080  156.4603 C.3     1  UNL1        0.2556
     26 C         140.6831  144.9871  160.8138 C.2     1  UNL1        0.3447
     27 O         139.9338  146.0653  161.5389 O.2     1  UNL1       -0.2450
     28 O         142.1435  144.7771  161.0840 O.3     1  UNL1       -0.4455
     29 C         144.0198  144.1065  162.7514 C.3     1  UNL1        0.0513
     30 C         142.6283  144.6036  162.4929 C.3     1  UNL1        0.2089
     31 C         140.7520  145.6836  157.8965 C.3     1  UNL1        0.1405
     32 N         140.3821  146.3414  156.6002 N.3     1  UNL1       -0.2617
     33 C         141.1158  145.9840  155.3417 C.3     1  UNL1        0.1050
     34 C         140.7459  146.6418  154.0453 C.3     1  UNL1        0.1595
     35 O         139.6423  147.6570  154.0076 O.3     1  UNL1       -0.3508
     36 C         138.9086  148.0144  155.2662 C.3     1  UNL1        0.1595
     37 C         139.2785  147.3566  156.5625 C.3     1  UNL1        0.1050
@<TRIPOS>BOND
     1    29    30    1
     2    30    28    1
     3    28    26    1
     4    26    27    2
     5    26     1    1
     6     1     2    2
     7     2    31    1
     8    31    32    1
     9    32    33    1
    10    33    34    1
    11    34    35    1
    12    35    36    1
    13    36    37    1
    14     2     3    1
    15     3     4    1
    16     4    16    1
    17    16    17   ar
    18    17    18   ar
    19    18    21    1
    20    21    22    1
    21    22    23    2
    22    22    24    1
    23    24    25    1
    24    18    19   ar
    25    19    20   ar
    26     4     5    2
    27     5     6    1
    28     6     8    1
    29     8     9   ar
    30     9    10   ar
    31    10    11   ar
    32    11    12    1
    33    11    13   ar
    34    13    14   ar
    35    14    15    1
    36     6     1    1
    37    14     8   ar
    38    37    32    1
    39    20    16   ar
    40     3     7    1
@<TRIPOS>MOLECULE
*****
 37 40 0 0 0
SMALL
GASTEIGER

@<TRIPOS>ATOM
      1 C         141.8974  140.7220  161.2845 C.2     1  UNL1        0.1397
      2 C         142.6097  141.3664  160.1325 C.2     1  UNL1        0.1355
      3 N         142.9626  140.5557  158.9207 N.pl3   1  UNL1       -0.1998
      4 C         142.6031  139.1007  158.8611 C.2     1  UNL1        0.3442
      5 N         141.8908  138.4563  160.0132 N.2     1  UNL1       -0.0580
      6 C         141.5379  139.2670  161.2249 C.3     1  UNL1        0.2692
      7 H         143.4301  140.9786  158.1646 H       1  UNL1        0.2983
      8 C         140.8256  138.6225  162.3770 C.ar    1  UNL1        0.0371
      9 C         141.6073  138.1109  163.5506 C.ar    1  UNL1        0.0030
     10 C         140.8950  137.4665  164.7027 C.ar    1  UNL1        0.0295
     11 C         139.4010  137.3337  164.6813 C.ar    1  UNL1        0.1406
     12 F         138.6887  136.6892  165.8334 F       1  UNL1       -0.2042
     13 C         138.6193  137.8453  163.5077 C.ar    1  UNL1        0.0362
     14 C         139.3317  138.4897  162.3556 C.ar    1  UNL1        0.0372
     15 BR        138.5500  139.0013  161.1820 Br      1  UNL1       -0.0491
     16 C         142.9560  138.2900  157.6494 C.ar    1  UNL1        0.1927
     17 N         142.9863  136.7925  157.5686 N.ar    1  UNL1       -0.2351
     18 C         143.3896  136.4114  156.1750 C.ar    1  UNL1        0.0775
     19 C         143.6086  137.6735  155.3944 C.ar    1  UNL1        0.0524
     20 S         143.3406  138.8344  156.3056 S.2     1  UNL1       -0.0590
     21 C         143.5463  135.0138  155.6535 C.3     1  UNL1        0.1556
     22 C         142.6354  133.9255  156.1392 C.2     1  UNL1        0.3232
     23 O         141.3887  133.5938  155.3739 O.2     1  UNL1       -0.2497
     24 O         142.9712  133.1690  157.3902 O.3     1  UNL1       -0.4441
     25 C         144.3691  133.2008  157.9334 C.3     1  UNL1        0.2556
     26 C         141.5445  141.5327  162.4963 C.2     1  UNL1        0.3447
     27 O         142.6124  141.9230  163.4746 O.2     1  UNL1       -0.2450
     28 O         140.1237  141.9531  162.7297 O.3     1  UNL1       -0.4455
     29 C         138.0044  141.6346  164.1984 C.3     1  UNL1        0.0513
     30 C         139.4946  141.7552  164.0769 C.3     1  UNL1        0.2089
     31 C         142.9691  142.8215  160.1920 C.3     1  UNL1        0.1405
     32 N         141.9230  143.8638  159.9290 N.3     1  UNL1       -0.2617
     33 C         141.4153  144.0818  158.5345 C.3     1  UNL1        0.1050
     34 C         140.3692  145.1242  158.2715 C.3     1  UNL1        0.1595
     35 O         139.8308  145.9486  159.4031 O.3     1  UNL1       -0.3508
     36 C         140.3385  145.7307  160.7976 C.3     1  UNL1        0.1595
     37 C         141.3846  144.6883  161.0606 C.3     1  UNL1        0.1050
@<TRIPOS>BOND
     1    29    30    1
     2    30    28    1
     3    28    26    1
     4    26    27    2
     5    26     1    1
     6     1     2    2
     7     2    31    1
     8    31    32    1
     9    32    33    1
    10    33    34    1
    11    34    35    1
    12    35    36    1
    13    36    37    1
    14     2     3    1
    15     3     4    1
    16     4    16    1
    17    16    17   ar
    18    17    18   ar
    19    18    21    1
    20    21    22    1
    21    22    23    2
    22    22    24    1
    23    24    25    1
    24    18    19   ar
    25    19    20   ar
    26     4     5    2
    27     5     6    1
    28     6     8    1
    29     8     9   ar
    30     9    10   ar
    31    10    11   ar
    32    11    12    1
    33    11    13   ar
    34    13    14   ar
    35    14    15    1
    36     6     1    1
    37    14     8   ar
    38    37    32    1
    39    20    16   ar
    40     3     7    1
@<TRIPOS>MOLECULE
*****
 37 40 0 0 0
SMALL
GASTEIGER

@<TRIPOS>ATOM
      1 C         141.1197  140.2855  160.8911 C.2     1  UNL1        0.1397
      2 C         140.7442  140.5564  159.4644 C.2     1  UNL1        0.1355
      3 N         141.2238  139.6422  158.3761 N.pl3   1  UNL1       -0.1998
      4 C         142.0788  138.4572  158.7146 C.2     1  UNL1        0.3442
      5 N         142.4543  138.1863  160.1413 N.2     1  UNL1       -0.0580
      6 C         141.9747  139.1005  161.2296 C.3     1  UNL1        0.2692
      7 H         140.9773  139.8200  157.4397 H       1  UNL1        0.2983
      8 C         142.3503  138.8296  162.6564 C.ar    1  UNL1        0.0371
      9 C         141.4752  137.9605  163.5101 C.ar    1  UNL1        0.0030
     10 C         141.8507  137.6896  164.9369 C.ar    1  UNL1        0.0295
     11 C         143.1013  138.2877  165.5099 C.ar    1  UNL1        0.1406
     12 F         143.4767  138.0168  166.9366 F       1  UNL1       -0.2042
     13 C         143.9763  139.1568  164.6561 C.ar    1  UNL1        0.0362
     14 C         143.6008  139.4277  163.2293 C.ar    1  UNL1        0.0372
     15 BR        144.4759  140.2968  162.3755 Br      1  UNL1       -0.0491
     16 C         142.5584  137.5430  157.6263 C.ar    1  UNL1        0.1927
     17 N         142.9737  136.1118  157.7963 N.ar    1  UNL1       -0.2351
     18 C         143.3788  135.5838  156.4520 C.ar    1  UNL1        0.0775
     19 C         143.2139  136.6888  155.4511 C.ar    1  UNL1        0.0524
     20 S         142.7068  137.8996  156.1769 S.2     1  UNL1       -0.0590
     21 C         143.8638  134.1947  156.1599 C.3     1  UNL1        0.1556
     22 C         143.8134  133.1427  157.2280 C.2     1  UNL1        0.3232
     23 O         144.8500  133.1242  158.3120 O.2     1  UNL1       -0.2497
     24 O         142.7264  132.1092  157.2120 O.3     1  UNL1       -0.4441
     25 C         143.0761  130.6545  157.1035 C.3     1  UNL1        0.2556
     26 C         140.6401  141.1997  161.9794 C.2     1  UNL1        0.3447
     27 O         141.4713  142.3793  162.3885 O.2     1  UNL1       -0.2450
     28 O         139.3294  140.9341  162.6586 O.3     1  UNL1       -0.4455
     29 C         137.7370  142.9802  162.8266 C.3     1  UNL1        0.0513
     30 C         138.0936  141.6585  162.2133 C.3     1  UNL1        0.2089
     31 C         139.8891  141.7414  159.1259 C.3     1  UNL1        0.1405
     32 N         140.5106  143.0996  158.9872 N.3     1  UNL1       -0.2617
     33 C         141.6098  143.3233  157.9914 C.3     1  UNL1        0.1050
     34 C         142.2313  144.6815  157.8528 C.3     1  UNL1        0.1595
     35 O         141.7534  145.8159  158.7099 O.3     1  UNL1       -0.3508
     36 C         140.6542  145.5922  159.7057 C.3     1  UNL1        0.1595
     37 C         140.0328  144.2341  159.8444 C.3     1  UNL1        0.1050
@<TRIPOS>BOND
     1    29    30    1
     2    30    28    1
     3    28    26    1
     4    26    27    2
     5    26     1    1
     6     1     2    2
     7     2    31    1
     8    31    32    1
     9    32    33    1
    10    33    34    1
    11    34    35    1
    12    35    36    1
    13    36    37    1
    14     2     3    1
    15     3     4    1
    16     4    16    1
    17    16    17   ar
    18    17    18   ar
    19    18    21    1
    20    21    22    1
    21    22    23    2
    22    22    24    1
    23    24    25    1
    24    18    19   ar
    25    19    20   ar
    26     4     5    2
    27     5     6    1
    28     6     8    1
    29     8     9   ar
    30     9    10   ar
    31    10    11   ar
    32    11    12    1
    33    11    13   ar
    34    13    14   ar
    35    14    15    1
    36     6     1    1
    37    14     8   ar
    38    37    32    1
    39    20    16   ar
    40     3     7    1
@<TRIPOS>MOLECULE
*****
 37 40 0 0 0
SMALL
GASTEIGER

@<TRIPOS>ATOM
      1 C         139.0894  141.3074  160.8801 C.2     1  UNL1        0.1397
      2 C         139.1774  140.6587  159.5305 C.2     1  UNL1        0.1355
      3 N         139.1991  141.5044  158.2918 N.pl3   1  UNL1       -0.1998
      4 C         139.1328  142.9988  158.4027 C.2     1  UNL1        0.3442
      5 N         139.0448  143.6474  159.7523 N.2     1  UNL1       -0.0580
      6 C         139.0231  142.8017  160.9910 C.3     1  UNL1        0.2692
      7 H         139.2568  141.0786  157.4060 H       1  UNL1        0.2983
      8 C         138.9351  143.4505  162.3406 C.ar    1  UNL1        0.0371
      9 C         137.6178  143.5206  163.0546 C.ar    1  UNL1        0.0030
     10 C         137.5297  144.1693  164.4041 C.ar    1  UNL1        0.0295
     11 C         138.7590  144.7480  165.0398 C.ar    1  UNL1        0.1406
     12 F         138.6710  145.3967  166.3893 F       1  UNL1       -0.2042
     13 C         140.0763  144.6780  164.3258 C.ar    1  UNL1        0.0362
     14 C         140.1643  144.0292  162.9762 C.ar    1  UNL1        0.0372
     15 BR        141.4816  143.9592  162.2622 Br      1  UNL1       -0.0491
     16 C         139.1545  143.8445  157.1640 C.ar    1  UNL1        0.1927
     17 N         139.9894  145.0719  156.9490 N.ar    1  UNL1       -0.2351
     18 C         139.6961  145.5973  155.5750 C.ar    1  UNL1        0.0775
     19 C         138.6799  144.6945  154.9408 C.ar    1  UNL1        0.0524
     20 S         138.3452  143.6112  155.9229 S.2     1  UNL1       -0.0590
     21 C         140.3110  146.8121  154.9457 C.3     1  UNL1        0.1556
     22 C         139.5493  148.1037  154.9072 C.2     1  UNL1        0.3232
     23 O         138.7368  148.5309  156.0936 O.2     1  UNL1       -0.2497
     24 O         139.6001  148.9682  153.6824 O.3     1  UNL1       -0.4441
     25 C         140.6547  148.7332  152.6418 C.3     1  UNL1        0.2556
     26 C         139.0676  140.4616  162.1187 C.2     1  UNL1        0.3447
     27 O         137.7971  139.7874  162.5443 O.2     1  UNL1       -0.2450
     28 O         140.3164  140.2902  162.9318 O.3     1  UNL1       -0.4455
     29 C         140.2730  141.1205  165.3933 C.3     1  UNL1        0.0513
     30 C         140.2212  139.9977  164.4000 C.3     1  UNL1        0.2089
     31 C         139.2436  139.1642  159.4195 C.3     1  UNL1        0.1405
     32 N         140.5083  138.5016  158.9597 N.3     1  UNL1       -0.2617
     33 C         141.6622  138.3495  159.9060 C.3     1  UNL1        0.1050
     34 C         142.9270  137.6869  159.4461 C.3     1  UNL1        0.1595
     35 O         143.0378  137.1764  158.0401 O.3     1  UNL1       -0.3508
     36 C         141.8839  137.3285  157.0938 C.3     1  UNL1        0.1595
     37 C         140.6192  137.9911  157.5536 C.3     1  UNL1        0.1050
@<TRIPOS>BOND
     1    29    30    1
     2    30    28    1
     3    28    26    1
     4    26    27    2
     5    26     1    1
     6     1     2    2
     7     2    31    1
     8    31    32    1
     9    32    33    1
    10    33    34    1
    11    34    35    1
    12    35    36    1
    13    36    37    1
    14     2     3    1
    15     3     4    1
    16     4    16    1
    17    16    17   ar
    18    17    18   ar
    19    18    21    1
    20    21    22    1
    21    22    23    2
    22    22    24    1
    23    24    25    1
    24    18    19   ar
    25    19    20   ar
    26     4     5    2
    27     5     6    1
    28     6     8    1
    29     8     9   ar
    30     9    10   ar
    31    10    11   ar
    32    11    12    1
    33    11    13   ar
    34    13    14   ar
    35    14    15    1
    36     6     1    1
    37    14     8   ar
    38    37    32    1
    39    20    16   ar
    40     3     7    1
@<TRIPOS>MOLECULE
*****
 37 40 0 0 0
SMALL
GASTEIGER

@<TRIPOS>ATOM
      1 C         141.4650  139.6282  163.9655 C.2     1  UNL1        0.1397
      2 C         141.7257  139.8229  162.5012 C.2     1  UNL1        0.1355
      3 N         141.4117  141.1381  161.8519 N.pl3   1  UNL1       -0.1998
      4 C         140.8371  142.2586  162.6669 C.2     1  UNL1        0.3442
      5 N         140.5765  142.0639  164.1311 N.2     1  UNL1       -0.0580
      6 C         140.8904  140.7487  164.7804 C.3     1  UNL1        0.2692
      7 H         141.5828  141.2659  160.8908 H       1  UNL1        0.2983
      8 C         140.6297  140.5540  166.2448 C.ar    1  UNL1        0.0371
      9 C         141.6851  140.9125  167.2486 C.ar    1  UNL1        0.0030
     10 C         141.4244  140.7179  168.7128 C.ar    1  UNL1        0.0295
     11 C         140.1084  140.1647  169.1734 C.ar    1  UNL1        0.1406
     12 F         139.8477  139.9700  170.6376 F       1  UNL1       -0.2042
     13 C         139.0530  139.8061  168.1695 C.ar    1  UNL1        0.0362
     14 C         139.3137  140.0008  166.7052 C.ar    1  UNL1        0.0372
     15 BR        138.2583  139.6423  165.7014 Br      1  UNL1       -0.0491
     16 C         140.5232  143.5739  162.0176 C.ar    1  UNL1        0.1927
     17 N         140.6001  143.8732  160.5497 N.ar    1  UNL1       -0.2351
     18 C         140.2016  145.3050  160.3471 C.ar    1  UNL1        0.0775
     19 C         139.8785  145.8907  161.6897 C.ar    1  UNL1        0.0524
     20 S         140.0772  144.8208  162.7221 S.2     1  UNL1       -0.0590
     21 C         140.1376  146.0248  159.0326 C.3     1  UNL1        0.1556
     22 C         141.0696  145.6416  157.9216 C.2     1  UNL1        0.3232
     23 O         142.5453  145.5560  158.1765 O.2     1  UNL1       -0.2497
     24 O         140.5260  145.3440  156.5556 O.3     1  UNL1       -0.4441
     25 C         139.9879  146.4556  155.7040 C.3     1  UNL1        0.2556
     26 C         141.7790  138.3129  164.6148 C.2     1  UNL1        0.3447
     27 O         140.7275  137.2462  164.6951 O.2     1  UNL1       -0.2450
     28 O         143.1444  138.0644  165.1837 O.3     1  UNL1       -0.4455
     29 C         145.0556  139.4996  164.1651 C.3     1  UNL1        0.0513
     30 C         144.1249  139.1934  165.3010 C.3     1  UNL1        0.2089
     31 C         142.3003  138.7023  161.6862 C.3     1  UNL1        0.1405
     32 N         142.7644  138.9571  160.2827 N.3     1  UNL1       -0.2617
     33 C         143.6905  140.1015  159.9951 C.3     1  UNL1        0.1050
     34 C         144.1545  140.3562  158.5915 C.3     1  UNL1        0.1595
     35 O         143.6924  139.4666  157.4757 O.3     1  UNL1       -0.3508
     36 C         142.7663  138.3223  157.7634 C.3     1  UNL1        0.1595
     37 C         142.3023  138.0675  159.1668 C.3     1  UNL1        0.1050
@<TRIPOS>BOND
     1    29    30    1
     2    30    28    1
     3    28    26    1
     4    26    27    2
     5    26     1    1
     6     1     2    2
     7     2    31    1
     8    31    32    1
     9    32    33    1
    10    33    34    1
    11    34    35    1
    12    35    36    1
    13    36    37    1
    14     2     3    1
    15     3     4    1
    16     4    16    1
    17    16    17   ar
    18    17    18   ar
    19    18    21    1
    20    21    22    1
    21    22    23    2
    22    22    24    1
    23    24    25    1
    24    18    19   ar
    25    19    20   ar
    26     4     5    2
    27     5     6    1
    28     6     8    1
    29     8     9   ar
    30     9    10   ar
    31    10    11   ar
    32    11    12    1
    33    11    13   ar
    34    13    14   ar
    35    14    15    1
    36     6     1    1
    37    14     8   ar
    38    37    32    1
    39    20    16   ar
    40     3     7    1
