@<TRIPOS>MOLECULE
*****
 40 45 0 0 0
SMALL
GASTEIGER

@<TRIPOS>ATOM
      1 C         139.2383  140.1716  160.6246 C.2     1  UNL1        0.2495
      2 O         138.3549  141.2366  161.2038 O.2     1  UNL1       -0.2698
      3 N         140.1922  139.4253  161.5095 N.am    1  UNL1       -0.2804
      4 H         140.7719  138.7263  161.1293 H       1  UNL1        0.1552
      5 C         140.2627  139.7439  162.9736 C.ar    1  UNL1        0.0504
      6 C         141.3006  140.6990  163.4841 C.ar    1  UNL1        0.0144
      7 C         141.3711  141.0176  164.9482 C.ar    1  UNL1       -0.0018
      8 C         140.4038  140.3811  165.9017 C.ar    1  UNL1       -0.0064
      9 C         139.3659  139.4260  165.3912 C.ar    1  UNL1        0.0364
     10 C         139.2954  139.1074  163.9271 C.ar    1  UNL1        0.0153
     11 C         138.5528  138.9563  166.5609 C.3     1  UNL1        0.2840
     12 F         137.8153  138.1585  165.5267 F       1  UNL1       -0.1995
     13 F         137.5855  138.3199  167.5144 F       1  UNL1       -0.1995
     14 C         139.0881  139.6212  167.7944 C.3     1  UNL1        0.0915
     15 C         140.2321  140.5017  167.3870 C.3     1  UNL1        0.0859
     16 N         141.0591  141.3534  168.3039 N.3     1  UNL1       -0.2677
     17 C         140.4714  142.5938  168.9089 C.3     1  UNL1        0.0899
     18 C         141.2986  143.4453  169.8257 C.3     1  UNL1        0.0897
     19 N         142.7133  143.0566  170.1376 N.3     1  UNL1       -0.2691
     20 C         143.5404  143.9082  171.0545 C.3     1  UNL1        0.0897
     21 C         143.3010  141.8162  169.5326 C.3     1  UNL1        0.0897
     22 C         142.4739  140.9646  168.6157 C.3     1  UNL1        0.0899
     23 C         138.9561  138.8971  154.7683 C.3     1  UNL1        0.0317
     24 C         139.0267  139.2157  156.2324 C.ar    1  UNL1       -0.0142
     25 C         138.3134  140.4193  156.7733 C.ar    1  UNL1       -0.0035
     26 C         138.3839  140.7380  158.2373 C.ar    1  UNL1        0.0042
     27 C         139.1677  139.8530  159.1605 C.ar    1  UNL1        0.0543
     28 C         139.8811  138.6494  158.6197 C.ar    1  UNL1        0.0124
     29 C         139.8106  138.3308  157.1557 C.ar    1  UNL1        0.0382
     30 C         140.5239  137.1271  156.6148 C.1     1  UNL1       -0.0585
     31 C         141.2372  135.9235  156.0740 C.1     1  UNL1       -0.0388
     32 C         141.9506  134.7199  155.5332 C.ar    1  UNL1        0.1451
     33 C         141.7368  134.1007  154.1838 C.ar    1  UNL1        0.1281
     34 N         142.6570  132.9223  154.0634 N.ar    1  UNL1       -0.2228
     35 C         143.4396  132.8132  155.3385 C.ar    1  UNL1        0.1646
     36 C         144.4933  131.8457  155.7897 C.ar    1  UNL1        0.0405
     37 C         145.1104  131.9893  157.1493 C.ar    1  UNL1        0.0256
     38 C         144.6738  133.1003  158.0577 C.ar    1  UNL1        0.1207
     39 N         143.6201  134.0677  157.6064 N.ar    1  UNL1       -0.1616
     40 N         143.0030  133.9242  156.2468 N.ar    1  UNL1       -0.2030
@<TRIPOS>BOND
     1    23    24    1
     2    24    25   ar
     3    25    26   ar
     4    26    27   ar
     5    27     1    1
     6     1     2    2
     7     1     3   am
     8     3     5    1
     9     5     6   ar
    10     6     7   ar
    11     7     8   ar
    12     8     9   ar
    13     9    10   ar
    14     9    11    1
    15    11    12    1
    16    11    13    1
    17    11    14    1
    18    14    15    1
    19    15    16    1
    20    16    17    1
    21    17    18    1
    22    18    19    1
    23    19    20    1
    24    19    21    1
    25    21    22    1
    26    27    28   ar
    27    28    29   ar
    28    29    30    1
    29    30    31    3
    30    31    32    1
    31    32    33   ar
    32    33    34   ar
    33    34    35   ar
    34    35    36   ar
    35    36    37   ar
    36    37    38   ar
    37    38    39   ar
    38    39    40   ar
    39    29    24   ar
    40    40    32   ar
    41    10     5   ar
    42    22    16    1
    43    40    35   ar
    44    15     8    1
    45     3     4    1
@<TRIPOS>MOLECULE
*****
 40 45 0 0 0
SMALL
GASTEIGER

@<TRIPOS>ATOM
      1 C         139.2396  141.6440  160.4075 C.2     1  UNL1        0.2495
      2 O         140.5164  140.9043  160.6766 O.2     1  UNL1       -0.2698
      3 N         138.4303  142.1834  161.5494 N.am    1  UNL1       -0.2804
      4 H         137.5922  142.6689  161.3728 H       1  UNL1        0.1552
      5 C         138.8978  141.9831  162.9606 C.ar    1  UNL1        0.0504
      6 C         139.8496  142.9622  163.5815 C.ar    1  UNL1        0.0144
      7 C         140.3171  142.7618  164.9926 C.ar    1  UNL1       -0.0018
      8 C         139.8329  141.5824  165.7828 C.ar    1  UNL1       -0.0064
      9 C         138.8811  140.6033  165.1619 C.ar    1  UNL1        0.0364
     10 C         138.4136  140.8037  163.7508 C.ar    1  UNL1        0.0153
     11 C         138.5779  139.5432  166.1788 C.3     1  UNL1        0.2840
     12 F         137.7123  138.9727  165.0947 F       1  UNL1       -0.1995
     13 F         138.0936  138.3638  166.9691 F       1  UNL1       -0.1995
     14 C         139.3422  139.8671  167.4282 C.3     1  UNL1        0.0915
     15 C         140.1179  141.1274  167.1835 C.3     1  UNL1        0.0859
     16 N         141.0201  141.8124  168.1667 N.3     1  UNL1       -0.2677
     17 C         140.4770  142.8884  169.0596 C.3     1  UNL1        0.0899
     18 C         141.3792  143.5734  170.0427 C.3     1  UNL1        0.0897
     19 N         142.8246  143.1824  170.1331 N.3     1  UNL1       -0.2691
     20 C         143.7268  143.8675  171.1163 C.3     1  UNL1        0.0897
     21 C         143.3677  142.1064  169.2402 C.3     1  UNL1        0.0897
     22 C         142.4654  141.4214  168.2570 C.3     1  UNL1        0.0899
     23 C         137.3694  142.4453  154.7629 C.3     1  UNL1        0.0317
     24 C         137.8370  142.2450  156.1741 C.ar    1  UNL1       -0.0142
     25 C         137.4412  141.0095  156.9271 C.ar    1  UNL1       -0.0035
     26 C         137.9087  140.8092  158.3382 C.ar    1  UNL1        0.0042
     27 C         138.7720  141.8443  158.9963 C.ar    1  UNL1        0.0543
     28 C         139.1678  143.0798  158.2433 C.ar    1  UNL1        0.0124
     29 C         138.7003  143.2801  156.8322 C.ar    1  UNL1        0.0382
     30 C         139.0961  144.5156  156.0793 C.1     1  UNL1       -0.0585
     31 C         139.4918  145.7510  155.3263 C.1     1  UNL1       -0.0388
     32 C         139.8876  146.9865  154.5733 C.ar    1  UNL1        0.1451
     33 C         140.7732  147.0360  153.3637 C.ar    1  UNL1        0.1281
     34 N         140.9003  148.4695  152.9405 N.ar    1  UNL1       -0.2228
     35 C         140.0931  149.3059  153.8886 C.ar    1  UNL1        0.1646
     36 C         139.8472  150.7837  153.9635 C.ar    1  UNL1        0.0405
     37 C         138.9754  151.3450  155.0474 C.ar    1  UNL1        0.0256
     38 C         138.3496  150.4284  156.0565 C.ar    1  UNL1        0.1207
     39 N         138.5955  148.9506  155.9817 N.ar    1  UNL1       -0.1616
     40 N         139.4673  148.3894  154.8977 N.ar    1  UNL1       -0.2030
@<TRIPOS>BOND
     1    23    24    1
     2    24    25   ar
     3    25    26   ar
     4    26    27   ar
     5    27     1    1
     6     1     2    2
     7     1     3   am
     8     3     5    1
     9     5     6   ar
    10     6     7   ar
    11     7     8   ar
    12     8     9   ar
    13     9    10   ar
    14     9    11    1
    15    11    12    1
    16    11    13    1
    17    11    14    1
    18    14    15    1
    19    15    16    1
    20    16    17    1
    21    17    18    1
    22    18    19    1
    23    19    20    1
    24    19    21    1
    25    21    22    1
    26    27    28   ar
    27    28    29   ar
    28    29    30    1
    29    30    31    3
    30    31    32    1
    31    32    33   ar
    32    33    34   ar
    33    34    35   ar
    34    35    36   ar
    35    36    37   ar
    36    37    38   ar
    37    38    39   ar
    38    39    40   ar
    39    29    24   ar
    40    40    32   ar
    41    10     5   ar
    42    22    16    1
    43    40    35   ar
    44    15     8    1
    45     3     4    1
@<TRIPOS>MOLECULE
*****
 40 45 0 0 0
SMALL
GASTEIGER

@<TRIPOS>ATOM
      1 C         142.2152  138.0355  158.7603 C.2     1  UNL1        0.2495
      2 O         141.5575  139.3750  158.9124 O.2     1  UNL1       -0.2698
      3 N         142.8585  137.3771  159.9446 N.am    1  UNL1       -0.2804
      4 H         143.2902  136.4979  159.8448 H       1  UNL1        0.1552
      5 C         142.8443  138.0582  161.2810 C.ar    1  UNL1        0.0504
      6 C         141.8291  137.6645  162.3127 C.ar    1  UNL1        0.0144
      7 C         141.8149  138.3456  163.6490 C.ar    1  UNL1       -0.0018
      8 C         142.8158  139.4205  163.9537 C.ar    1  UNL1       -0.0064
      9 C         143.8309  139.8142  162.9220 C.ar    1  UNL1        0.0364
     10 C         143.8452  139.1331  161.5857 C.ar    1  UNL1        0.0153
     11 C         144.6864  140.9001  163.5043 C.3     1  UNL1        0.2840
     12 F         145.3821  140.8475  162.1764 F       1  UNL1       -0.1995
     13 F         145.6873  141.9750  163.8089 F       1  UNL1       -0.1995
     14 C         144.1999  141.1775  164.8958 C.3     1  UNL1        0.0915
     15 C         143.0438  140.2630  165.1736 C.3     1  UNL1        0.0859
     16 N         142.2544  140.2018  166.4476 N.3     1  UNL1       -0.2677
     17 C         142.8667  139.6082  167.6816 C.3     1  UNL1        0.0899
     18 C         142.0772  139.5471  168.9555 C.3     1  UNL1        0.0897
     19 N         140.6754  140.0794  168.9954 N.3     1  UNL1       -0.2691
     20 C         139.8860  140.0182  170.2694 C.3     1  UNL1        0.0897
     21 C         140.0631  140.6730  167.7614 C.3     1  UNL1        0.0897
     22 C         140.8526  140.7342  166.4875 C.3     1  UNL1        0.0899
     23 C         142.2723  135.3109  153.4149 C.3     1  UNL1        0.0317
     24 C         142.2580  135.9921  154.7513 C.ar    1  UNL1       -0.0142
     25 C         141.7756  137.4077  154.8664 C.ar    1  UNL1       -0.0035
     26 C         141.7613  138.0889  156.2027 C.ar    1  UNL1        0.0042
     27 C         142.2294  137.3544  157.4239 C.ar    1  UNL1        0.0543
     28 C         142.7118  135.9387  157.3088 C.ar    1  UNL1        0.0124
     29 C         142.7261  135.2576  155.9725 C.ar    1  UNL1        0.0382
     30 C         143.2085  133.8419  155.8573 C.1     1  UNL1       -0.0585
     31 C         143.6909  132.4263  155.7422 C.1     1  UNL1       -0.0388
     32 C         144.1733  131.0107  155.6270 C.ar    1  UNL1        0.1451
     33 C         144.5490  130.3078  154.3563 C.ar    1  UNL1        0.1281
     34 N         144.9726  128.9121  154.7063 N.ar    1  UNL1       -0.2228
     35 C         144.8588  128.7523  156.1934 C.ar    1  UNL1        0.1646
     36 C         145.1411  127.5934  157.1029 C.ar    1  UNL1        0.0405
     37 C         144.9294  127.7315  158.5815 C.ar    1  UNL1        0.0256
     38 C         144.4354  129.0285  159.1505 C.ar    1  UNL1        0.1207
     39 N         144.1531  130.1874  158.2410 N.ar    1  UNL1       -0.1616
     40 N         144.3648  130.0493  156.7624 N.ar    1  UNL1       -0.2030
@<TRIPOS>BOND
     1    23    24    1
     2    24    25   ar
     3    25    26   ar
     4    26    27   ar
     5    27     1    1
     6     1     2    2
     7     1     3   am
     8     3     5    1
     9     5     6   ar
    10     6     7   ar
    11     7     8   ar
    12     8     9   ar
    13     9    10   ar
    14     9    11    1
    15    11    12    1
    16    11    13    1
    17    11    14    1
    18    14    15    1
    19    15    16    1
    20    16    17    1
    21    17    18    1
    22    18    19    1
    23    19    20    1
    24    19    21    1
    25    21    22    1
    26    27    28   ar
    27    28    29   ar
    28    29    30    1
    29    30    31    3
    30    31    32    1
    31    32    33   ar
    32    33    34   ar
    33    34    35   ar
    34    35    36   ar
    35    36    37   ar
    36    37    38   ar
    37    38    39   ar
    38    39    40   ar
    39    29    24   ar
    40    40    32   ar
    41    10     5   ar
    42    22    16    1
    43    40    35   ar
    44    15     8    1
    45     3     4    1
@<TRIPOS>MOLECULE
*****
 40 45 0 0 0
SMALL
GASTEIGER

@<TRIPOS>ATOM
      1 C         142.2759  138.5557  160.1167 C.2     1  UNL1        0.2495
      2 O         141.9205  140.0063  160.2562 O.2     1  UNL1       -0.2698
      3 N         142.2779  137.6646  161.3233 N.am    1  UNL1       -0.2804
      4 H         142.5111  136.7125  161.2317 H       1  UNL1        0.1552
      5 C         141.9245  138.2241  162.6695 C.ar    1  UNL1        0.0504
      6 C         142.8916  139.1177  163.3877 C.ar    1  UNL1        0.0144
      7 C         142.5382  139.6772  164.7338 C.ar    1  UNL1       -0.0018
      8 C         141.2176  139.3429  165.3617 C.ar    1  UNL1       -0.0064
      9 C         140.2504  138.4492  164.6435 C.ar    1  UNL1        0.0364
     10 C         140.6039  137.8898  163.2974 C.ar    1  UNL1        0.0153
     11 C         139.0324  138.2967  165.5055 C.3     1  UNL1        0.2840
     12 F         138.5419  137.4274  164.3858 F       1  UNL1       -0.1995
     13 F         137.7118  137.9625  166.1334 F       1  UNL1       -0.1995
     14 C         139.2468  139.0962  166.7565 C.3     1  UNL1        0.0915
     15 C         140.5973  139.7428  166.6677 C.3     1  UNL1        0.0859
     16 N         141.2185  140.6329  167.7029 N.3     1  UNL1       -0.2677
     17 C         140.6484  141.9965  167.9593 C.3     1  UNL1        0.0899
     18 C         141.2697  142.8865  168.9945 C.3     1  UNL1        0.0897
     19 N         142.4610  142.4131  169.7734 N.3     1  UNL1       -0.2691
     20 C         143.0822  143.3032  170.8086 C.3     1  UNL1        0.0897
     21 C         143.0311  141.0495  169.5170 C.3     1  UNL1        0.0897
     22 C         142.4098  140.1595  168.4818 C.3     1  UNL1        0.0899
     23 C         143.6894  136.3177  154.7321 C.3     1  UNL1        0.0317
     24 C         143.3360  136.8772  156.0783 C.ar    1  UNL1       -0.0142
     25 C         143.3315  138.3613  156.2960 C.ar    1  UNL1       -0.0035
     26 C         142.9781  138.9208  157.6421 C.ar    1  UNL1        0.0042
     27 C         142.6293  137.9962  158.7705 C.ar    1  UNL1        0.0543
     28 C         142.6338  136.5121  158.5528 C.ar    1  UNL1        0.0124
     29 C         142.9872  135.9526  157.2067 C.ar    1  UNL1        0.0382
     30 C         142.9917  134.4685  156.9890 C.1     1  UNL1       -0.0585
     31 C         142.9962  132.9844  156.7713 C.1     1  UNL1       -0.0388
     32 C         143.0007  131.5003  156.5536 C.ar    1  UNL1        0.1451
     33 C         144.0008  130.5306  157.1099 C.ar    1  UNL1        0.1281
     34 N         143.6241  129.1563  156.6415 N.ar    1  UNL1       -0.2228
     35 C         142.3912  129.2766  155.7956 C.ar    1  UNL1        0.1646
     36 C         141.5696  128.2542  155.0678 C.ar    1  UNL1        0.0405
     37 C         140.3627  128.6805  154.2858 C.ar    1  UNL1        0.0256
     38 C         139.9774  130.1292  154.2315 C.ar    1  UNL1        0.1207
     39 N         140.7990  131.1516  154.9592 N.ar    1  UNL1       -0.1616
     40 N         142.0059  130.7253  155.7413 N.ar    1  UNL1       -0.2030
@<TRIPOS>BOND
     1    23    24    1
     2    24    25   ar
     3    25    26   ar
     4    26    27   ar
     5    27     1    1
     6     1     2    2
     7     1     3   am
     8     3     5    1
     9     5     6   ar
    10     6     7   ar
    11     7     8   ar
    12     8     9   ar
    13     9    10   ar
    14     9    11    1
    15    11    12    1
    16    11    13    1
    17    11    14    1
    18    14    15    1
    19    15    16    1
    20    16    17    1
    21    17    18    1
    22    18    19    1
    23    19    20    1
    24    19    21    1
    25    21    22    1
    26    27    28   ar
    27    28    29   ar
    28    29    30    1
    29    30    31    3
    30    31    32    1
    31    32    33   ar
    32    33    34   ar
    33    34    35   ar
    34    35    36   ar
    35    36    37   ar
    36    37    38   ar
    37    38    39   ar
    38    39    40   ar
    39    29    24   ar
    40    40    32   ar
    41    10     5   ar
    42    22    16    1
    43    40    35   ar
    44    15     8    1
    45     3     4    1
@<TRIPOS>MOLECULE
*****
 40 45 0 0 0
SMALL
GASTEIGER

@<TRIPOS>ATOM
      1 C         139.6283  140.2806  158.8567 C.2     1  UNL1        0.2495
      2 O         140.1688  141.6798  158.8534 O.2     1  UNL1       -0.2698
      3 N         139.3270  139.5961  160.1569 N.am    1  UNL1       -0.2804
      4 H         138.9722  138.6777  160.1591 H       1  UNL1        0.1552
      5 C         139.5660  140.3109  161.4539 C.ar    1  UNL1        0.0504
      6 C         140.6998  139.8930  162.3426 C.ar    1  UNL1        0.0144
      7 C         140.9388  140.6077  163.6395 C.ar    1  UNL1       -0.0018
      8 C         140.0441  141.7404  164.0476 C.ar    1  UNL1       -0.0064
      9 C         138.9103  142.1582  163.1589 C.ar    1  UNL1        0.0364
     10 C         138.6713  141.4435  161.8620 C.ar    1  UNL1        0.0153
     11 C         138.2000  143.3018  163.8205 C.3     1  UNL1        0.2840
     12 F         137.3182  143.2497  162.6082 F       1  UNL1       -0.1995
     13 F         137.3052  144.4344  164.2287 F       1  UNL1       -0.1995
     14 C         138.8947  143.5906  165.1182 C.3     1  UNL1        0.0915
     15 C         140.0344  142.6256  165.2586 C.3     1  UNL1        0.0859
     16 N         140.9958  142.5578  166.4080 N.3     1  UNL1       -0.2677
     17 C         142.4677  142.4310  166.1483 C.3     1  UNL1        0.0899
     18 C         143.4289  142.3632  167.2978 C.3     1  UNL1        0.0897
     19 N         142.9183  142.4220  168.7070 N.3     1  UNL1       -0.2691
     20 C         143.8796  142.3542  169.8564 C.3     1  UNL1        0.0897
     21 C         141.4464  142.5488  168.9667 C.3     1  UNL1        0.0897
     22 C         140.4852  142.6166  167.8172 C.3     1  UNL1        0.0899
     23 C         138.6721  137.4216  153.6690 C.3     1  UNL1        0.0317
     24 C         138.9112  138.1363  154.9660 C.ar    1  UNL1       -0.0142
     25 C         138.1492  139.3887  155.2837 C.ar    1  UNL1       -0.0035
     26 C         138.3882  140.1035  156.5805 C.ar    1  UNL1        0.0042
     27 C         139.3893  139.5658  157.5597 C.ar    1  UNL1        0.0543
     28 C         140.1513  138.3135  157.2420 C.ar    1  UNL1        0.0124
     29 C         139.9122  137.5987  155.9452 C.ar    1  UNL1        0.0382
     30 C         140.6742  136.3463  155.6275 C.1     1  UNL1       -0.0585
     31 C         141.4362  135.0940  155.3098 C.1     1  UNL1       -0.0388
     32 C         142.1982  133.8416  154.9921 C.ar    1  UNL1        0.1451
     33 C         142.0788  133.0318  153.7352 C.ar    1  UNL1        0.1281
     34 N         143.0202  131.8688  153.8418 N.ar    1  UNL1       -0.2228
     35 C         143.7215  131.9599  155.1646 C.ar    1  UNL1        0.1646
     36 C         144.7570  131.0902  155.8137 C.ar    1  UNL1        0.0405
     37 C         145.2844  131.4397  157.1737 C.ar    1  UNL1        0.0256
     38 C         144.7764  132.6589  157.8846 C.ar    1  UNL1        0.1207
     39 N         143.7409  133.5287  157.2356 N.ar    1  UNL1       -0.1616
     40 N         143.2134  133.1792  155.8756 N.ar    1  UNL1       -0.2030
@<TRIPOS>BOND
     1    23    24    1
     2    24    25   ar
     3    25    26   ar
     4    26    27   ar
     5    27     1    1
     6     1     2    2
     7     1     3   am
     8     3     5    1
     9     5     6   ar
    10     6     7   ar
    11     7     8   ar
    12     8     9   ar
    13     9    10   ar
    14     9    11    1
    15    11    12    1
    16    11    13    1
    17    11    14    1
    18    14    15    1
    19    15    16    1
    20    16    17    1
    21    17    18    1
    22    18    19    1
    23    19    20    1
    24    19    21    1
    25    21    22    1
    26    27    28   ar
    27    28    29   ar
    28    29    30    1
    29    30    31    3
    30    31    32    1
    31    32    33   ar
    32    33    34   ar
    33    34    35   ar
    34    35    36   ar
    35    36    37   ar
    36    37    38   ar
    37    38    39   ar
    38    39    40   ar
    39    29    24   ar
    40    40    32   ar
    41    10     5   ar
    42    22    16    1
    43    40    35   ar
    44    15     8    1
    45     3     4    1
@<TRIPOS>MOLECULE
*****
 40 45 0 0 0
SMALL
GASTEIGER

@<TRIPOS>ATOM
      1 C         138.5152  140.5592  158.9956 C.2     1  UNL1        0.2495
      2 O         139.9565  140.8974  159.2372 O.2     1  UNL1       -0.2698
      3 N         137.6391  140.1478  160.1415 N.am    1  UNL1       -0.2804
      4 H         136.6932  139.9259  159.9829 H       1  UNL1        0.1552
      5 C         138.2043  140.0746  161.5291 C.ar    1  UNL1        0.0504
      6 C         137.9370  141.1799  162.5071 C.ar    1  UNL1        0.0144
      7 C         138.5022  141.1066  163.8946 C.ar    1  UNL1       -0.0018
      8 C         139.3347  139.9279  164.3041 C.ar    1  UNL1       -0.0064
      9 C         139.6020  138.8225  163.3260 C.ar    1  UNL1        0.0364
     10 C         139.0368  138.8959  161.9385 C.ar    1  UNL1        0.0153
     11 C         140.4520  137.7935  164.0105 C.3     1  UNL1        0.2840
     12 F         140.3680  137.0777  162.6950 F       1  UNL1       -0.1995
     13 F         141.2845  136.6148  164.4199 F       1  UNL1       -0.1995
     14 C         140.7101  138.2629  165.4116 C.3     1  UNL1        0.0915
     15 C         140.0195  139.5821  165.5931 C.3     1  UNL1        0.0859
     16 N         140.0146  140.4100  166.8438 N.3     1  UNL1       -0.2677
     17 C         139.4000  139.8675  168.1000 C.3     1  UNL1        0.0899
     18 C         139.3952  140.6955  169.3507 C.3     1  UNL1        0.0897
     19 N         140.0049  142.0660  169.3453 N.3     1  UNL1       -0.2691
     20 C         140.0000  142.8939  170.5961 C.3     1  UNL1        0.0897
     21 C         140.6195  142.6085  168.0892 C.3     1  UNL1        0.0897
     22 C         140.6243  141.7805  166.8385 C.3     1  UNL1        0.0899
     23 C         136.2545  140.8523  153.4455 C.3     1  UNL1        0.0317
     24 C         136.8197  140.7791  154.8331 C.ar    1  UNL1       -0.0142
     25 C         138.3000  140.6433  155.0337 C.ar    1  UNL1       -0.0035
     26 C         138.8652  140.5700  156.4212 C.ar    1  UNL1        0.0042
     27 C         137.9501  140.6325  157.6080 C.ar    1  UNL1        0.0543
     28 C         136.4698  140.7683  157.4074 C.ar    1  UNL1        0.0124
     29 C         135.9046  140.8416  156.0199 C.ar    1  UNL1        0.0382
     30 C         134.4243  140.9774  155.8193 C.1     1  UNL1       -0.0585
     31 C         132.9440  141.1132  155.6186 C.1     1  UNL1       -0.0388
     32 C         131.4637  141.2490  155.4180 C.ar    1  UNL1        0.1451
     33 C         130.7893  142.0443  154.3397 C.ar    1  UNL1        0.1281
     34 N         129.3067  141.9002  154.5156 N.ar    1  UNL1       -0.2228
     35 C         129.0646  141.0157  155.7027 C.ar    1  UNL1        0.1646
     36 C         127.8026  140.5249  156.3479 C.ar    1  UNL1        0.0405
     37 C         127.8737  139.6315  157.5508 C.ar    1  UNL1        0.0256
     38 C         129.2068  139.2290  158.1084 C.ar    1  UNL1        0.1207
     39 N         130.4688  139.7199  157.4632 N.ar    1  UNL1       -0.1616
     40 N         130.3977  140.6133  156.2604 N.ar    1  UNL1       -0.2030
@<TRIPOS>BOND
     1    23    24    1
     2    24    25   ar
     3    25    26   ar
     4    26    27   ar
     5    27     1    1
     6     1     2    2
     7     1     3   am
     8     3     5    1
     9     5     6   ar
    10     6     7   ar
    11     7     8   ar
    12     8     9   ar
    13     9    10   ar
    14     9    11    1
    15    11    12    1
    16    11    13    1
    17    11    14    1
    18    14    15    1
    19    15    16    1
    20    16    17    1
    21    17    18    1
    22    18    19    1
    23    19    20    1
    24    19    21    1
    25    21    22    1
    26    27    28   ar
    27    28    29   ar
    28    29    30    1
    29    30    31    3
    30    31    32    1
    31    32    33   ar
    32    33    34   ar
    33    34    35   ar
    34    35    36   ar
    35    36    37   ar
    36    37    38   ar
    37    38    39   ar
    38    39    40   ar
    39    29    24   ar
    40    40    32   ar
    41    10     5   ar
    42    22    16    1
    43    40    35   ar
    44    15     8    1
    45     3     4    1
@<TRIPOS>MOLECULE
*****
 40 45 0 0 0
SMALL
GASTEIGER

@<TRIPOS>ATOM
      1 C         143.3503  137.9192  156.4642 C.2     1  UNL1        0.2495
      2 O         144.5428  137.4213  155.7026 O.2     1  UNL1       -0.2698
      3 N         142.2825  136.9590  156.8972 N.am    1  UNL1       -0.2804
      4 H         141.4998  137.2858  157.3970 H       1  UNL1        0.1552
      5 C         142.4071  135.5007  156.5687 C.ar    1  UNL1        0.0504
      6 C         141.5425  134.8954  155.5029 C.ar    1  UNL1        0.0144
      7 C         141.6671  133.4371  155.1744 C.ar    1  UNL1       -0.0018
      8 C         142.6564  132.5842  155.9118 C.ar    1  UNL1       -0.0064
      9 C         143.5211  133.1894  156.9776 C.ar    1  UNL1        0.0364
     10 C         143.3964  134.6477  157.3060 C.ar    1  UNL1        0.0153
     11 C         144.3999  132.1074  157.5315 C.3     1  UNL1        0.2840
     12 F         144.9282  133.2031  158.4091 F       1  UNL1       -0.1995
     13 F         145.3892  131.2544  158.2688 F       1  UNL1       -0.1995
     14 C         144.0784  130.8333  156.8080 C.3     1  UNL1        0.0915
     15 C         143.0009  131.1280  155.8069 C.3     1  UNL1        0.0859
     16 N         142.3773  130.1400  154.8662 N.3     1  UNL1       -0.2677
     17 C         143.2008  129.5179  153.7777 C.3     1  UNL1        0.0899
     18 C         142.5772  128.5299  152.8371 C.3     1  UNL1        0.0897
     19 N         141.1300  128.1640  152.9849 N.3     1  UNL1       -0.2691
     20 C         140.5064  127.1760  152.0442 C.3     1  UNL1        0.0897
     21 C         140.3065  128.7861  154.0734 C.3     1  UNL1        0.0897
     22 C         140.9302  129.7740  155.0140 C.3     1  UNL1        0.0899
     23 C         142.8518  143.7524  157.7782 C.3     1  UNL1        0.0317
     24 C         142.9764  142.2940  157.4497 C.ar    1  UNL1       -0.0142
     25 C         143.3269  141.8667  156.0552 C.ar    1  UNL1       -0.0035
     26 C         143.4515  140.4084  155.7267 C.ar    1  UNL1        0.0042
     27 C         143.2257  139.3776  156.7926 C.ar    1  UNL1        0.0543
     28 C         142.8752  139.8049  158.1871 C.ar    1  UNL1        0.0124
     29 C         142.7506  141.2632  158.5156 C.ar    1  UNL1        0.0382
     30 C         142.4001  141.6905  159.9101 C.1     1  UNL1       -0.0585
     31 C         142.0496  142.1179  161.3046 C.1     1  UNL1       -0.0388
     32 C         141.6992  142.5453  162.6990 C.ar    1  UNL1        0.1451
     33 C         142.5975  142.4658  163.8976 C.ar    1  UNL1        0.1281
     34 N         141.8424  142.9986  165.0791 N.ar    1  UNL1       -0.2228
     35 C         140.4773  143.4074  164.6107 C.ar    1  UNL1        0.1646
     36 C         139.3034  143.9985  165.3336 C.ar    1  UNL1        0.0405
     37 C         138.0410  144.3095  164.5855 C.ar    1  UNL1        0.0256
     38 C         137.9525  144.0294  163.1145 C.ar    1  UNL1        0.1207
     39 N         139.1264  143.4382  162.3917 N.ar    1  UNL1       -0.1616
     40 N         140.3888  143.1272  163.1398 N.ar    1  UNL1       -0.2030
@<TRIPOS>BOND
     1    23    24    1
     2    24    25   ar
     3    25    26   ar
     4    26    27   ar
     5    27     1    1
     6     1     2    2
     7     1     3   am
     8     3     5    1
     9     5     6   ar
    10     6     7   ar
    11     7     8   ar
    12     8     9   ar
    13     9    10   ar
    14     9    11    1
    15    11    12    1
    16    11    13    1
    17    11    14    1
    18    14    15    1
    19    15    16    1
    20    16    17    1
    21    17    18    1
    22    18    19    1
    23    19    20    1
    24    19    21    1
    25    21    22    1
    26    27    28   ar
    27    28    29   ar
    28    29    30    1
    29    30    31    3
    30    31    32    1
    31    32    33   ar
    32    33    34   ar
    33    34    35   ar
    34    35    36   ar
    35    36    37   ar
    36    37    38   ar
    37    38    39   ar
    38    39    40   ar
    39    29    24   ar
    40    40    32   ar
    41    10     5   ar
    42    22    16    1
    43    40    35   ar
    44    15     8    1
    45     3     4    1
@<TRIPOS>MOLECULE
*****
 40 45 0 0 0
SMALL
GASTEIGER

@<TRIPOS>ATOM
      1 C         138.6313  140.9828  159.0318 C.2     1  UNL1        0.2495
      2 O         140.0743  141.3583  159.1954 O.2     1  UNL1       -0.2698
      3 N         137.7536  140.8342  160.2390 N.am    1  UNL1       -0.2804
      4 H         136.8065  140.5877  160.1317 H       1  UNL1        0.1552
      5 C         138.3188  141.0611  161.6099 C.ar    1  UNL1        0.0504
      6 C         138.9242  139.9185  162.3700 C.ar    1  UNL1        0.0144
      7 C         139.4894  140.1455  163.7408 C.ar    1  UNL1       -0.0018
      8 C         139.4491  141.5150  164.3514 C.ar    1  UNL1       -0.0064
      9 C         138.8436  142.6575  163.5912 C.ar    1  UNL1        0.0364
     10 C         138.2785  142.4306  162.2205 C.ar    1  UNL1        0.0153
     11 C         138.9448  143.8872  164.4443 C.3     1  UNL1        0.2840
     12 F         138.2683  144.5561  163.2845 F       1  UNL1       -0.1995
     13 F         138.9045  145.2567  165.0549 F       1  UNL1       -0.1995
     14 C         139.6127  143.5046  165.7317 C.3     1  UNL1        0.0915
     15 C         139.9245  142.0385  165.6743 C.3     1  UNL1        0.0859
     16 N         140.5940  141.2366  166.7508 N.3     1  UNL1       -0.2677
     17 C         142.0042  140.7607  166.5643 C.3     1  UNL1        0.0899
     18 C         142.6736  139.9588  167.6408 C.3     1  UNL1        0.0897
     19 N         141.9328  139.6329  168.9038 N.3     1  UNL1       -0.2691
     20 C         142.6023  138.8310  169.9802 C.3     1  UNL1        0.0897
     21 C         140.5226  140.1088  169.0903 C.3     1  UNL1        0.0897
     22 C         139.8532  140.9107  168.0138 C.3     1  UNL1        0.0899
     23 C         136.3705  140.0752  153.5487 C.3     1  UNL1        0.0317
     24 C         136.9357  140.3021  154.9195 C.ar    1  UNL1       -0.0142
     25 C         138.4035  140.1154  155.1659 C.ar    1  UNL1       -0.0035
     26 C         138.9687  140.3423  156.5366 C.ar    1  UNL1        0.0042
     27 C         138.0661  140.7559  157.6610 C.ar    1  UNL1        0.0543
     28 C         136.5983  140.9426  157.4146 C.ar    1  UNL1        0.0124
     29 C         136.0331  140.7157  156.0439 C.ar    1  UNL1        0.0382
     30 C         134.5653  140.9024  155.7975 C.1     1  UNL1       -0.0585
     31 C         133.0975  141.0890  155.5511 C.1     1  UNL1       -0.0388
     32 C         131.6297  141.2757  155.3048 C.ar    1  UNL1        0.1451
     33 C         131.0168  142.0692  154.1891 C.ar    1  UNL1        0.1281
     34 N         129.5254  141.9856  154.3256 N.ar    1  UNL1       -0.2228
     35 C         129.2164  141.1404  155.5257 C.ar    1  UNL1        0.1646
     36 C         127.9190  140.7135  156.1456 C.ar    1  UNL1        0.0405
     37 C         127.9220  139.8479  157.3706 C.ar    1  UNL1        0.0256
     38 C         129.2225  139.4092  157.9757 C.ar    1  UNL1        0.1207
     39 N         130.5200  139.8360  157.3558 N.ar    1  UNL1       -0.1616
     40 N         130.5170  140.7016  156.1308 N.ar    1  UNL1       -0.2030
@<TRIPOS>BOND
     1    23    24    1
     2    24    25   ar
     3    25    26   ar
     4    26    27   ar
     5    27     1    1
     6     1     2    2
     7     1     3   am
     8     3     5    1
     9     5     6   ar
    10     6     7   ar
    11     7     8   ar
    12     8     9   ar
    13     9    10   ar
    14     9    11    1
    15    11    12    1
    16    11    13    1
    17    11    14    1
    18    14    15    1
    19    15    16    1
    20    16    17    1
    21    17    18    1
    22    18    19    1
    23    19    20    1
    24    19    21    1
    25    21    22    1
    26    27    28   ar
    27    28    29   ar
    28    29    30    1
    29    30    31    3
    30    31    32    1
    31    32    33   ar
    32    33    34   ar
    33    34    35   ar
    34    35    36   ar
    35    36    37   ar
    36    37    38   ar
    37    38    39   ar
    38    39    40   ar
    39    29    24   ar
    40    40    32   ar
    41    10     5   ar
    42    22    16    1
    43    40    35   ar
    44    15     8    1
    45     3     4    1
@<TRIPOS>MOLECULE
*****
 40 45 0 0 0
SMALL
GASTEIGER

@<TRIPOS>ATOM
      1 C         142.8569  139.2788  159.0672 C.2     1  UNL1        0.2495
      2 O         144.1707  139.1697  159.7827 O.2     1  UNL1       -0.2698
      3 N         141.7149  140.0140  159.7038 N.am    1  UNL1       -0.2804
      4 H         140.8526  140.0856  159.2342 H       1  UNL1        0.1552
      5 C         141.8868  140.6403  161.0560 C.ar    1  UNL1        0.0504
      6 C         141.3513  139.9506  162.2756 C.ar    1  UNL1        0.0144
      7 C         141.5232  140.5768  163.6277 C.ar    1  UNL1       -0.0018
      8 C         142.2307  141.8929  163.7602 C.ar    1  UNL1       -0.0064
      9 C         142.7662  142.5826  162.5406 C.ar    1  UNL1        0.0364
     10 C         142.5943  141.9564  161.1885 C.ar    1  UNL1        0.0153
     11 C         143.4145  143.8623  162.9790 C.3     1  UNL1        0.2840
     12 F         143.6972  144.0363  161.5161 F       1  UNL1       -0.1995
     13 F         144.1219  145.1783  163.1115 F       1  UNL1       -0.1995
     14 C         143.2797  143.9634  164.4695 C.3     1  UNL1        0.0915
     15 C         142.5480  142.7462  164.9523 C.3     1  UNL1        0.0859
     16 N         142.1956  142.4367  166.3771 N.3     1  UNL1       -0.2677
     17 C         140.7569  142.3244  166.7864 C.3     1  UNL1        0.0899
     18 C         140.4045  142.0149  168.2112 C.3     1  UNL1        0.0897
     19 N         141.4908  141.8177  169.2266 N.3     1  UNL1       -0.2691
     20 C         141.1383  141.5082  170.6514 C.3     1  UNL1        0.0897
     21 C         142.9295  141.9300  168.8173 C.3     1  UNL1        0.0897
     22 C         143.2818  142.2395  167.3925 C.3     1  UNL1        0.0899
     23 C         142.1693  136.7736  153.6587 C.3     1  UNL1        0.0317
     24 C         142.3412  137.3999  155.0109 C.ar    1  UNL1       -0.0142
     25 C         142.4270  138.8918  155.1410 C.ar    1  UNL1       -0.0035
     26 C         142.5989  139.5181  156.4930 C.ar    1  UNL1        0.0042
     27 C         142.6850  138.6525  157.7150 C.ar    1  UNL1        0.0543
     28 C         142.5991  137.1606  157.5849 C.ar    1  UNL1        0.0124
     29 C         142.4272  136.5343  156.2328 C.ar    1  UNL1        0.0382
     30 C         142.3414  135.0424  156.1027 C.1     1  UNL1       -0.0585
     31 C         142.2556  133.5506  155.9726 C.1     1  UNL1       -0.0388
     32 C         142.1698  132.0587  155.8425 C.ar    1  UNL1        0.1451
     33 C         141.2474  131.3047  154.9311 C.ar    1  UNL1        0.1281
     34 N         141.4988  129.8389  155.1263 N.ar    1  UNL1       -0.2228
     35 C         142.5766  129.6869  156.1584 C.ar    1  UNL1        0.1646
     36 C         143.2340  128.4765  156.7523 C.ar    1  UNL1        0.0405
     37 C         144.3061  128.6380  157.7889 C.ar    1  UNL1        0.0256
     38 C         144.7208  130.0099  158.2315 C.ar    1  UNL1        0.1207
     39 N         144.0633  131.2203  157.6376 N.ar    1  UNL1       -0.1616
     40 N         142.9912  131.0588  156.6010 N.ar    1  UNL1       -0.2030
@<TRIPOS>BOND
     1    23    24    1
     2    24    25   ar
     3    25    26   ar
     4    26    27   ar
     5    27     1    1
     6     1     2    2
     7     1     3   am
     8     3     5    1
     9     5     6   ar
    10     6     7   ar
    11     7     8   ar
    12     8     9   ar
    13     9    10   ar
    14     9    11    1
    15    11    12    1
    16    11    13    1
    17    11    14    1
    18    14    15    1
    19    15    16    1
    20    16    17    1
    21    17    18    1
    22    18    19    1
    23    19    20    1
    24    19    21    1
    25    21    22    1
    26    27    28   ar
    27    28    29   ar
    28    29    30    1
    29    30    31    3
    30    31    32    1
    31    32    33   ar
    32    33    34   ar
    33    34    35   ar
    34    35    36   ar
    35    36    37   ar
    36    37    38   ar
    37    38    39   ar
    38    39    40   ar
    39    29    24   ar
    40    40    32   ar
    41    10     5   ar
    42    22    16    1
    43    40    35   ar
    44    15     8    1
    45     3     4    1
