@<TRIPOS>MOLECULE
*****
 31 33 0 0 0
SMALL
GASTEIGER

@<TRIPOS>ATOM
      1 N         138.9325  139.1761  164.0431 N.3     1  UNL1       -0.2716
      2 C         139.4741  139.7818  165.3040 C.3     1  UNL1        0.0610
      3 C         138.8882  139.4005  166.6311 C.3     1  UNL1        0.0375
      4 C         139.4298  140.0061  167.8920 C.3     1  UNL1        0.0950
      5 N         140.5573  140.9932  167.8257 N.pl3   1  UNL1       -0.2785
      6 C         141.1433  141.3746  166.4986 C.3     1  UNL1        0.0950
      7 C         140.6017  140.7689  165.2377 C.3     1  UNL1        0.0375
      8 C         141.0989  141.5989  169.0866 C.ar    1  UNL1        0.2163
      9 N         142.1969  142.6171  169.1748 N.ar    1  UNL1       -0.1804
     10 C         142.4142  142.9402  170.6234 C.ar    1  UNL1        0.2331
     11 N         143.4188  143.9113  171.1690 N.pl3   1  UNL1       -0.3262
     12 N         141.4505  142.1217  171.4305 N.ar    1  UNL1       -0.1354
     13 N         140.6376  141.2928  170.4807 N.ar    1  UNL1       -0.2450
     14 H         144.0106  144.4039  170.5557 H       1  UNL1        0.1452
     15 H         143.4863  144.0560  172.1405 H       1  UNL1        0.1452
     16 H         139.9262  140.6590  170.7288 H       1  UNL1        0.1919
     17 C         139.4387  137.8447  163.5730 C.3     1  UNL1        0.0995
     18 C         140.8396  137.7163  163.0525 C.3     1  UNL1        0.1076
     19 C         141.2700  137.1174  164.3586 C.3     1  UNL1        0.0311
     20 C         140.4092  138.3151  161.7463 C.3     1  UNL1        0.0311
     21 C         143.3092  138.5224  163.0161 C.3     1  UNL1        0.1739
     22 O         142.2406  137.5878  162.5319 O.3     1  UNL1       -0.3545
     23 C         137.8846  139.9019  163.2523 C.3     1  UNL1        0.0768
     24 C         137.3601  141.2214  163.7357 C.3     1  UNL1        0.0437
     25 C         138.0338  142.4949  163.3180 C.ar    1  UNL1       -0.0207
     26 C         138.1959  143.6154  164.3019 C.ar    1  UNL1       -0.0034
     27 C         138.8696  144.8888  163.8842 C.ar    1  UNL1        0.0111
     28 C         139.3812  145.0417  162.4824 C.ar    1  UNL1        0.0577
     29 CL        140.0549  146.3151  162.0647 Cl      1  UNL1       -0.0822
     30 C         139.2191  143.9212  161.4985 C.ar    1  UNL1        0.0111
     31 C         138.5454  142.6478  161.9162 C.ar    1  UNL1       -0.0034
@<TRIPOS>BOND
     1    21    22    1
     2    22    18    1
     3    18    19    1
     4    18    20    1
     5    18    17    1
     6    17     1    1
     7     1    23    1
     8    23    24    1
     9    24    25    1
    10    25    26   ar
    11    26    27   ar
    12    27    28   ar
    13    28    29    1
    14    28    30   ar
    15    30    31   ar
    16     1     2    1
    17     2     3    1
    18     3     4    1
    19     4     5    1
    20     5     8    1
    21     8     9   ar
    22     9    10   ar
    23    10    11    1
    24    10    12   ar
    25    12    13   ar
    26     5     6    1
    27     6     7    1
    28    31    25   ar
    29     7     2    1
    30    13     8   ar
    31    11    14    1
    32    11    15    1
    33    13    16    1
@<TRIPOS>MOLECULE
*****
 31 33 0 0 0
SMALL
GASTEIGER

@<TRIPOS>ATOM
      1 N         138.8918  139.0770  163.1971 N.3     1  UNL1       -0.2716
      2 C         139.2451  139.4474  164.6071 C.3     1  UNL1        0.0610
      3 C         138.4744  138.8606  165.7523 C.3     1  UNL1        0.0375
      4 C         138.8277  139.2311  167.1622 C.3     1  UNL1        0.0950
      5 N         139.9517  140.1884  167.4270 N.pl3   1  UNL1       -0.2785
      6 C         140.7224  140.7753  166.2817 C.3     1  UNL1        0.0950
      7 C         140.3692  140.4048  164.8718 C.3     1  UNL1        0.0375
      8 C         140.3050  140.5588  168.8369 C.ar    1  UNL1        0.2163
      9 N         141.3238  141.5788  169.2517 N.ar    1  UNL1       -0.1804
     10 C         141.3499  141.6247  170.7508 C.ar    1  UNL1        0.2331
     11 N         142.2250  142.5072  171.5906 N.pl3   1  UNL1       -0.3262
     12 N         140.3473  140.6332  171.2625 N.ar    1  UNL1       -0.1354
     13 N         139.7015  139.9745  170.0797 N.ar    1  UNL1       -0.2450
     14 H         142.8552  143.1289  171.1598 H       1  UNL1        0.1452
     15 H         142.1692  142.4646  172.5726 H       1  UNL1        0.1452
     16 H         139.0041  139.2805  170.1131 H       1  UNL1        0.1919
     17 C         139.6127  137.9529  162.5140 C.3     1  UNL1        0.0995
     18 C         141.1122  137.9198  162.5041 C.3     1  UNL1        0.1076
     19 C         141.1279  138.9524  161.4162 C.3     1  UNL1        0.0311
     20 C         141.0966  136.8872  163.5919 C.3     1  UNL1        0.0311
     21 C         143.3889  138.8496  163.3422 C.3     1  UNL1        0.1739
     22 O         142.6119  137.8867  162.4943 O.3     1  UNL1       -0.3545
     23 C         137.8176  139.8307  162.4703 C.3     1  UNL1        0.0768
     24 C         137.2871  141.1140  163.0373 C.3     1  UNL1        0.0437
     25 C         138.0233  142.3994  162.8010 C.ar    1  UNL1       -0.0207
     26 C         138.7671  142.6123  161.5159 C.ar    1  UNL1       -0.0034
     27 C         139.5033  143.8977  161.2796 C.ar    1  UNL1        0.0111
     28 C         139.4956  144.9701  162.3283 C.ar    1  UNL1        0.0577
     29 CL        140.2318  146.2555  162.0919 Cl      1  UNL1       -0.0822
     30 C         138.7518  144.7572  163.6133 C.ar    1  UNL1        0.0111
     31 C         138.0156  143.4719  163.8497 C.ar    1  UNL1       -0.0034
@<TRIPOS>BOND
     1    21    22    1
     2    22    18    1
     3    18    19    1
     4    18    20    1
     5    18    17    1
     6    17     1    1
     7     1    23    1
     8    23    24    1
     9    24    25    1
    10    25    26   ar
    11    26    27   ar
    12    27    28   ar
    13    28    29    1
    14    28    30   ar
    15    30    31   ar
    16     1     2    1
    17     2     3    1
    18     3     4    1
    19     4     5    1
    20     5     8    1
    21     8     9   ar
    22     9    10   ar
    23    10    11    1
    24    10    12   ar
    25    12    13   ar
    26     5     6    1
    27     6     7    1
    28    31    25   ar
    29     7     2    1
    30    13     8   ar
    31    11    14    1
    32    11    15    1
    33    13    16    1
@<TRIPOS>MOLECULE
*****
 31 33 0 0 0
SMALL
GASTEIGER

@<TRIPOS>ATOM
      1 N         139.4826  140.0066  166.6304 N.3     1  UNL1       -0.2716
      2 C         139.6257  141.0148  165.5290 C.3     1  UNL1        0.0610
      3 C         138.4219  141.7594  165.0327 C.3     1  UNL1        0.0375
      4 C         138.5650  142.7675  163.9313 C.3     1  UNL1        0.0950
      5 N         139.9119  143.0311  163.3262 N.pl3   1  UNL1       -0.2785
      6 C         141.1159  142.2865  163.8224 C.3     1  UNL1        0.0950
      7 C         140.9728  141.2783  164.9238 C.3     1  UNL1        0.0375
      8 C         140.0550  144.0393  162.2247 C.ar    1  UNL1        0.2163
      9 N         141.1964  144.1304  161.2557 N.ar    1  UNL1       -0.1804
     10 C         140.9287  145.2808  160.3310 C.ar    1  UNL1        0.2331
     11 N         141.8126  145.7321  159.2063 N.pl3   1  UNL1       -0.3262
     12 N         139.6218  145.9006  160.7286 N.ar    1  UNL1       -0.1354
     13 N         139.0819  145.1333  161.8990 N.ar    1  UNL1       -0.2450
     14 H         142.6557  145.2583  159.0224 H       1  UNL1        0.1452
     15 H         141.5495  146.5020  158.6520 H       1  UNL1        0.1452
     16 H         138.2372  145.3158  162.3705 H       1  UNL1        0.1919
     17 C         140.4573  139.9979  167.7705 C.3     1  UNL1        0.0995
     18 C         140.3720  141.0481  168.8381 C.3     1  UNL1        0.1076
     19 C         139.1314  140.3996  169.3769 C.3     1  UNL1        0.0311
     20 C         141.6126  141.6966  168.2993 C.3     1  UNL1        0.0311
     21 C         140.4158  143.5482  169.5436 C.3     1  UNL1        0.1739
     22 O         140.2867  142.0983  169.9058 O.3     1  UNL1       -0.3545
     23 C         138.3648  139.0071  166.5917 C.3     1  UNL1        0.0768
     24 C         138.4934  137.7701  165.7531 C.3     1  UNL1        0.0437
     25 C         139.3849  137.7712  164.5467 C.ar    1  UNL1       -0.0207
     26 C         138.8112  138.0572  163.1905 C.ar    1  UNL1       -0.0034
     27 C         139.7026  138.0583  161.9842 C.ar    1  UNL1        0.0111
     28 C         141.1677  137.7734  162.1340 C.ar    1  UNL1        0.0577
     29 CL        142.0591  137.7745  160.9275 Cl      1  UNL1       -0.0822
     30 C         141.7413  137.4874  163.4901 C.ar    1  UNL1        0.0111
     31 C         140.8499  137.4864  164.6964 C.ar    1  UNL1       -0.0034
@<TRIPOS>BOND
     1    21    22    1
     2    22    18    1
     3    18    19    1
     4    18    20    1
     5    18    17    1
     6    17     1    1
     7     1    23    1
     8    23    24    1
     9    24    25    1
    10    25    26   ar
    11    26    27   ar
    12    27    28   ar
    13    28    29    1
    14    28    30   ar
    15    30    31   ar
    16     1     2    1
    17     2     3    1
    18     3     4    1
    19     4     5    1
    20     5     8    1
    21     8     9   ar
    22     9    10   ar
    23    10    11    1
    24    10    12   ar
    25    12    13   ar
    26     5     6    1
    27     6     7    1
    28    31    25   ar
    29     7     2    1
    30    13     8   ar
    31    11    14    1
    32    11    15    1
    33    13    16    1
@<TRIPOS>MOLECULE
*****
 31 33 0 0 0
SMALL
GASTEIGER

@<TRIPOS>ATOM
      1 N         139.9853  140.0791  168.4629 N.3     1  UNL1       -0.2716
      2 C         140.9808  140.4111  167.3910 C.3     1  UNL1        0.0610
      3 C         140.9448  141.7541  166.7239 C.3     1  UNL1        0.0375
      4 C         141.9402  142.0860  165.6520 C.3     1  UNL1        0.0950
      5 N         142.9717  141.0750  165.2472 N.pl3   1  UNL1       -0.2785
      6 C         143.0077  139.7319  165.9144 C.3     1  UNL1        0.0950
      7 C         142.0123  139.4000  166.9862 C.3     1  UNL1        0.0375
      8 C         143.9671  141.4069  164.1754 C.ar    1  UNL1        0.2163
      9 N         143.6614  142.0593  162.8596 N.ar    1  UNL1       -0.1804
     10 C         144.9484  142.2004  162.1022 C.ar    1  UNL1        0.2331
     11 N         145.1066  142.8011  160.7368 N.pl3   1  UNL1       -0.3262
     12 N         146.0495  141.6352  162.9497 N.ar    1  UNL1       -0.1354
     13 N         145.4430  141.1448  164.2310 N.ar    1  UNL1       -0.2450
     14 H         144.3196  143.1472  160.2572 H       1  UNL1        0.1452
     15 H         145.9973  142.8493  160.3204 H       1  UNL1        0.1452
     16 H         145.9284  140.7247  164.9774 H       1  UNL1        0.1919
     17 C         140.4182  140.0265  169.8981 C.3     1  UNL1        0.0995
     18 C         141.0762  141.2186  170.5271 C.3     1  UNL1        0.1076
     19 C         142.3471  140.4366  170.6797 C.3     1  UNL1        0.0311
     20 C         139.8053  142.0006  170.3746 C.3     1  UNL1        0.0311
     21 C         142.8878  143.0800  170.4698 C.3     1  UNL1        0.1739
     22 O         141.7342  142.4108  171.1563 O.3     1  UNL1       -0.3545
     23 C         138.5570  139.7998  168.0995 C.3     1  UNL1        0.0768
     24 C         138.2244  138.6518  167.1933 C.3     1  UNL1        0.0437
     25 C         138.4270  138.7818  165.7126 C.ar    1  UNL1       -0.0207
     26 C         138.9551  137.6210  164.9231 C.ar    1  UNL1       -0.0034
     27 C         139.1576  137.7511  163.4426 C.ar    1  UNL1        0.0111
     28 C         138.8320  139.0420  162.7516 C.ar    1  UNL1        0.0577
     29 CL        139.0345  139.1721  161.2710 Cl      1  UNL1       -0.0822
     30 C         138.3038  140.2029  163.5412 C.ar    1  UNL1        0.0111
     31 C         138.1013  140.0728  165.0217 C.ar    1  UNL1       -0.0034
@<TRIPOS>BOND
     1    21    22    1
     2    22    18    1
     3    18    19    1
     4    18    20    1
     5    18    17    1
     6    17     1    1
     7     1    23    1
     8    23    24    1
     9    24    25    1
    10    25    26   ar
    11    26    27   ar
    12    27    28   ar
    13    28    29    1
    14    28    30   ar
    15    30    31   ar
    16     1     2    1
    17     2     3    1
    18     3     4    1
    19     4     5    1
    20     5     8    1
    21     8     9   ar
    22     9    10   ar
    23    10    11    1
    24    10    12   ar
    25    12    13   ar
    26     5     6    1
    27     6     7    1
    28    31    25   ar
    29     7     2    1
    30    13     8   ar
    31    11    14    1
    32    11    15    1
    33    13    16    1
@<TRIPOS>MOLECULE
*****
 31 33 0 0 0
SMALL
GASTEIGER

@<TRIPOS>ATOM
      1 N         142.5091  138.3188  163.3732 N.3     1  UNL1       -0.2716
      2 C         142.5022  139.0396  164.6887 C.3     1  UNL1        0.0610
      3 C         143.0445  138.3675  165.9150 C.3     1  UNL1        0.0375
      4 C         143.0376  139.0883  167.2305 C.3     1  UNL1        0.0950
      5 N         142.4882  140.4812  167.3196 N.pl3   1  UNL1       -0.2785
      6 C         141.9458  141.1534  166.0931 C.3     1  UNL1        0.0950
      7 C         141.9528  140.4326  164.7777 C.3     1  UNL1        0.0375
      8 C         142.4813  141.2020  168.6350 C.ar    1  UNL1        0.2163
      9 N         143.2396  142.4555  168.9576 N.ar    1  UNL1       -0.1804
     10 C         142.9417  142.8240  170.3808 C.ar    1  UNL1        0.2331
     11 N         143.4900  144.0100  171.1176 N.pl3   1  UNL1       -0.3262
     12 N         141.9994  141.7984  170.9378 N.ar    1  UNL1       -0.1354
     13 N         141.7149  140.7960  169.8588 N.ar    1  UNL1       -0.2450
     14 H         144.1055  144.6300  170.6638 H       1  UNL1        0.1452
     15 H         143.2342  144.1684  172.0550 H       1  UNL1        0.1452
     16 H         141.1281  140.0096  169.9397 H       1  UNL1        0.1919
     17 C         141.2869  137.5785  162.9172 C.3     1  UNL1        0.0995
     18 C         139.9486  138.2556  162.9381 C.3     1  UNL1        0.1076
     19 C         139.5977  137.5230  164.1992 C.3     1  UNL1        0.0311
     20 C         140.2994  138.9881  161.6771 C.3     1  UNL1        0.0311
     21 C         137.7757  138.9831  161.7137 C.3     1  UNL1        0.1739
     22 O         138.6102  138.9327  162.9591 O.3     1  UNL1       -0.3545
     23 C         143.7384  138.3384  162.5138 C.3     1  UNL1        0.0768
     24 C         143.9283  139.4286  161.5012 C.3     1  UNL1        0.0437
     25 C         143.9221  140.8645  161.9349 C.ar    1  UNL1       -0.0207
     26 C         144.9628  141.3629  162.8934 C.ar    1  UNL1       -0.0034
     27 C         144.9566  142.7988  163.3271 C.ar    1  UNL1        0.0111
     28 C         143.9098  143.7363  162.8024 C.ar    1  UNL1        0.0577
     29 CL        143.9036  145.1722  163.2362 Cl      1  UNL1       -0.0822
     30 C         142.8691  143.2379  161.8440 C.ar    1  UNL1        0.0111
     31 C         142.8753  141.8020  161.4103 C.ar    1  UNL1       -0.0034
@<TRIPOS>BOND
     1    21    22    1
     2    22    18    1
     3    18    19    1
     4    18    20    1
     5    18    17    1
     6    17     1    1
     7     1    23    1
     8    23    24    1
     9    24    25    1
    10    25    26   ar
    11    26    27   ar
    12    27    28   ar
    13    28    29    1
    14    28    30   ar
    15    30    31   ar
    16     1     2    1
    17     2     3    1
    18     3     4    1
    19     4     5    1
    20     5     8    1
    21     8     9   ar
    22     9    10   ar
    23    10    11    1
    24    10    12   ar
    25    12    13   ar
    26     5     6    1
    27     6     7    1
    28    31    25   ar
    29     7     2    1
    30    13     8   ar
    31    11    14    1
    32    11    15    1
    33    13    16    1
@<TRIPOS>MOLECULE
*****
 31 33 0 0 0
SMALL
GASTEIGER

@<TRIPOS>ATOM
      1 N         140.0446  139.3434  162.2785 N.3     1  UNL1       -0.2716
      2 C         139.9216  139.6006  163.7512 C.3     1  UNL1        0.0610
      3 C         140.8274  140.5934  164.4174 C.3     1  UNL1        0.0375
      4 C         140.7044  140.8506  165.8900 C.3     1  UNL1        0.0950
      5 N         139.6757  140.1149  166.6965 N.pl3   1  UNL1       -0.2785
      6 C         138.7699  139.1220  166.0303 C.3     1  UNL1        0.0950
      7 C         138.8929  138.8648  164.5577 C.3     1  UNL1        0.0375
      8 C         139.5527  140.3720  168.1692 C.ar    1  UNL1        0.2163
      9 N         140.2661  141.4432  168.9398 N.ar    1  UNL1       -0.1804
     10 C         139.8490  141.3363  170.3767 C.ar    1  UNL1        0.2331
     11 N         140.3203  142.2128  171.4990 N.pl3   1  UNL1       -0.3262
     12 N         138.8779  140.1992  170.4942 N.ar    1  UNL1       -0.1354
     13 N         138.6948  139.6032  169.1299 N.ar    1  UNL1       -0.2450
     14 H         140.9626  142.9375  171.3213 H       1  UNL1        0.1452
     15 H         139.9873  142.0634  172.4134 H       1  UNL1        0.1452
     16 H         138.1136  138.8412  168.9045 H       1  UNL1        0.1919
     17 C         139.6318  140.3988  161.2958 C.3     1  UNL1        0.0995
     18 C         138.5354  141.3610  161.6451 C.3     1  UNL1        0.1076
     19 C         139.5458  142.4601  161.7892 C.3     1  UNL1        0.0311
     20 C         137.5249  140.2618  161.5010 C.3     1  UNL1        0.0311
     21 C         137.7284  143.5032  162.8738 C.3     1  UNL1        0.1739
     22 O         137.4388  142.3232  161.9943 O.3     1  UNL1       -0.3545
     23 C         140.5805  138.0308  161.7885 C.3     1  UNL1        0.0768
     24 C         142.0326  137.8977  161.4372 C.3     1  UNL1        0.0437
     25 C         143.0349  138.8521  162.0159 C.ar    1  UNL1       -0.0207
     26 C         143.6008  138.6075  163.3833 C.ar    1  UNL1       -0.0034
     27 C         144.6029  139.5619  163.9619 C.ar    1  UNL1        0.0111
     28 C         145.0392  140.7608  163.1730 C.ar    1  UNL1        0.0577
     29 CL        146.0414  141.7152  163.7517 Cl      1  UNL1       -0.0822
     30 C         144.4733  141.0054  161.8056 C.ar    1  UNL1        0.0111
     31 C         143.4711  140.0510  161.2270 C.ar    1  UNL1       -0.0034
@<TRIPOS>BOND
     1    21    22    1
     2    22    18    1
     3    18    19    1
     4    18    20    1
     5    18    17    1
     6    17     1    1
     7     1    23    1
     8    23    24    1
     9    24    25    1
    10    25    26   ar
    11    26    27   ar
    12    27    28   ar
    13    28    29    1
    14    28    30   ar
    15    30    31   ar
    16     1     2    1
    17     2     3    1
    18     3     4    1
    19     4     5    1
    20     5     8    1
    21     8     9   ar
    22     9    10   ar
    23    10    11    1
    24    10    12   ar
    25    12    13   ar
    26     5     6    1
    27     6     7    1
    28    31    25   ar
    29     7     2    1
    30    13     8   ar
    31    11    14    1
    32    11    15    1
    33    13    16    1
@<TRIPOS>MOLECULE
*****
 31 33 0 0 0
SMALL
GASTEIGER

@<TRIPOS>ATOM
      1 N         138.1928  140.3482  163.5763 N.3     1  UNL1       -0.2716
      2 C         138.9194  140.4087  164.8872 C.3     1  UNL1        0.0610
      3 C         140.1332  141.2778  165.0325 C.3     1  UNL1        0.0375
      4 C         140.8598  141.3383  166.3434 C.3     1  UNL1        0.0950
      5 N         140.3725  140.5297  167.5090 N.pl3   1  UNL1       -0.2785
      6 C         139.1586  139.6605  167.3637 C.3     1  UNL1        0.0950
      7 C         138.4320  139.6000  166.0528 C.3     1  UNL1        0.0375
      8 C         141.0990  140.5902  168.8199 C.ar    1  UNL1        0.2163
      9 N         142.2955  139.7707  169.2035 N.ar    1  UNL1       -0.1804
     10 C         142.6926  140.1549  170.5980 C.ar    1  UNL1        0.2331
     11 N         143.8393  139.5826  171.3774 N.pl3   1  UNL1       -0.3262
     12 N         141.7416  141.2118  171.0763 N.ar    1  UNL1       -0.1354
     13 N         140.7568  141.4808  169.9773 N.ar    1  UNL1       -0.2450
     14 H         144.4102  138.8886  170.9753 H       1  UNL1        0.1452
     15 H         144.0211  139.9010  172.2911 H       1  UNL1        0.1452
     16 H         140.0159  142.1282  170.0100 H       1  UNL1        0.1919
     17 C         137.2636  141.4576  163.1819 C.3     1  UNL1        0.0995
     18 C         137.8145  142.7278  162.6047 C.3     1  UNL1        0.1076
     19 C         137.4879  143.4485  163.8790 C.3     1  UNL1        0.0311
     20 C         138.1411  142.0071  161.3305 C.3     1  UNL1        0.0311
     21 C         139.0817  144.9750  162.9120 C.3     1  UNL1        0.1739
     22 O         138.3654  143.9980  162.0275 O.3     1  UNL1       -0.3545
     23 C         138.3955  139.1781  162.6598 C.3     1  UNL1        0.0768
     24 C         139.3416  138.0795  163.0441 C.3     1  UNL1        0.0437
     25 C         140.7740  138.3980  163.3557 C.ar    1  UNL1       -0.0207
     26 C         141.3899  137.9100  164.6334 C.ar    1  UNL1       -0.0034
     27 C         142.8222  138.2285  164.9450 C.ar    1  UNL1        0.0111
     28 C         143.6385  139.0350  163.9789 C.ar    1  UNL1        0.0577
     29 CL        145.0708  139.3535  164.2906 Cl      1  UNL1       -0.0822
     30 C         143.0225  139.5230  162.7013 C.ar    1  UNL1        0.0111
     31 C         141.5903  139.2045  162.3897 C.ar    1  UNL1       -0.0034
@<TRIPOS>BOND
     1    21    22    1
     2    22    18    1
     3    18    19    1
     4    18    20    1
     5    18    17    1
     6    17     1    1
     7     1    23    1
     8    23    24    1
     9    24    25    1
    10    25    26   ar
    11    26    27   ar
    12    27    28   ar
    13    28    29    1
    14    28    30   ar
    15    30    31   ar
    16     1     2    1
    17     2     3    1
    18     3     4    1
    19     4     5    1
    20     5     8    1
    21     8     9   ar
    22     9    10   ar
    23    10    11    1
    24    10    12   ar
    25    12    13   ar
    26     5     6    1
    27     6     7    1
    28    31    25   ar
    29     7     2    1
    30    13     8   ar
    31    11    14    1
    32    11    15    1
    33    13    16    1
@<TRIPOS>MOLECULE
*****
 31 33 0 0 0
SMALL
GASTEIGER

@<TRIPOS>ATOM
      1 N         143.6588  139.4373  163.4002 N.3     1  UNL1       -0.2716
      2 C         142.8931  139.7914  164.6405 C.3     1  UNL1        0.0610
      3 C         143.2177  139.1171  165.9404 C.3     1  UNL1        0.0375
      4 C         142.4520  139.4712  167.1807 C.3     1  UNL1        0.0950
      5 N         141.3617  140.4996  167.1211 N.pl3   1  UNL1       -0.2785
      6 C         141.0370  141.1740  165.8211 C.3     1  UNL1        0.0950
      7 C         141.8027  140.8199  164.5808 C.3     1  UNL1        0.0375
      8 C         140.5960  140.8537  168.3614 C.ar    1  UNL1        0.2163
      9 N         140.5404  142.2065  169.0071 N.ar    1  UNL1       -0.1804
     10 C         139.6615  142.1060  170.2186 C.ar    1  UNL1        0.2331
     11 N         139.3286  143.2241  171.1614 N.pl3   1  UNL1       -0.3262
     12 N         139.1739  140.6912  170.3215 N.ar    1  UNL1       -0.1354
     13 N         139.7515  139.9173  169.1737 N.ar    1  UNL1       -0.2450
     14 H         139.6994  144.1233  171.0091 H       1  UNL1        0.1452
     15 H         138.7394  143.0587  171.9326 H       1  UNL1        0.1452
     16 H         139.6025  138.9623  168.9864 H       1  UNL1        0.1919
     17 C         144.8524  140.2516  162.9976 C.3     1  UNL1        0.0995
     18 C         144.7125  141.7284  162.7755 C.3     1  UNL1        0.1076
     19 C         143.9115  141.4659  161.5347 C.3     1  UNL1        0.0311
     20 C         145.5135  141.9909  164.0162 C.3     1  UNL1        0.0311
     21 C         143.3020  143.9044  162.9367 C.3     1  UNL1        0.1739
     22 O         144.5726  143.2053  162.5534 O.3     1  UNL1       -0.3545
     23 C         143.2307  138.2689  162.5625 C.3     1  UNL1        0.0768
     24 C         141.8931  137.6306  162.7932 C.3     1  UNL1        0.0437
     25 C         140.6714  138.1859  162.1230 C.ar    1  UNL1       -0.0207
     26 C         139.3217  137.9993  162.7500 C.ar    1  UNL1       -0.0034
     27 C         138.1001  138.5546  162.0797 C.ar    1  UNL1        0.0111
     28 C         138.2283  139.2965  160.7824 C.ar    1  UNL1        0.0577
     29 CL        137.0066  139.8518  160.1121 Cl      1  UNL1       -0.0822
     30 C         139.5780  139.4832  160.1553 C.ar    1  UNL1        0.0111
     31 C         140.7996  138.9279  160.8256 C.ar    1  UNL1       -0.0034
@<TRIPOS>BOND
     1    21    22    1
     2    22    18    1
     3    18    19    1
     4    18    20    1
     5    18    17    1
     6    17     1    1
     7     1    23    1
     8    23    24    1
     9    24    25    1
    10    25    26   ar
    11    26    27   ar
    12    27    28   ar
    13    28    29    1
    14    28    30   ar
    15    30    31   ar
    16     1     2    1
    17     2     3    1
    18     3     4    1
    19     4     5    1
    20     5     8    1
    21     8     9   ar
    22     9    10   ar
    23    10    11    1
    24    10    12   ar
    25    12    13   ar
    26     5     6    1
    27     6     7    1
    28    31    25   ar
    29     7     2    1
    30    13     8   ar
    31    11    14    1
    32    11    15    1
    33    13    16    1
@<TRIPOS>MOLECULE
*****
 31 33 0 0 0
SMALL
GASTEIGER

@<TRIPOS>ATOM
      1 N         144.0857  142.3029  163.5718 N.3     1  UNL1       -0.2716
      2 C         143.2596  142.0469  164.7973 C.3     1  UNL1        0.0610
      3 C         143.7029  142.5833  166.1261 C.3     1  UNL1        0.0375
      4 C         142.8768  142.3273  167.3517 C.3     1  UNL1        0.0950
      5 N         141.6074  141.5350  167.2485 N.pl3   1  UNL1       -0.2785
      6 C         141.1640  140.9985  165.9197 C.3     1  UNL1        0.0950
      7 C         141.9901  141.2545  164.6941 C.3     1  UNL1        0.0375
      8 C         140.7813  141.2790  168.4741 C.ar    1  UNL1        0.2163
      9 N         139.5411  140.4378  168.5416 N.ar    1  UNL1       -0.1804
     10 C         139.0437  140.4582  169.9566 C.ar    1  UNL1        0.2331
     11 N         137.8272  139.7493  170.4737 N.pl3   1  UNL1       -0.3262
     12 N         139.9764  141.3120  170.7635 N.ar    1  UNL1       -0.1354
     13 N         141.0502  141.8192  169.8473 N.ar    1  UNL1       -0.2450
     14 H         137.2751  139.2095  169.8629 H       1  UNL1        0.1452
     15 H         137.5808  139.8237  171.4240 H       1  UNL1        0.1452
     16 H         141.8000  142.4041  170.1025 H       1  UNL1        0.1919
     17 C         144.9178  141.2016  162.9847 C.3     1  UNL1        0.0995
     18 C         144.3261  139.8372  162.7893 C.3     1  UNL1        0.1076
     19 C         145.0121  139.3612  164.0353 C.3     1  UNL1        0.0311
     20 C         143.6400  140.3132  161.5432 C.3     1  UNL1        0.0311
     21 C         143.9051  137.7618  161.2841 C.3     1  UNL1        0.1739
     22 O         143.7343  138.4728  162.5938 O.3     1  UNL1       -0.3545
     23 C         144.0796  143.6602  162.9332 C.3     1  UNL1        0.0768
     24 C         142.9009  144.0994  162.1162 C.3     1  UNL1        0.0437
     25 C         141.5231  144.0646  162.7082 C.ar    1  UNL1       -0.0207
     26 C         141.2094  144.8814  163.9265 C.ar    1  UNL1       -0.0034
     27 C         139.8316  144.8466  164.5185 C.ar    1  UNL1        0.0111
     28 C         138.7676  143.9948  163.8922 C.ar    1  UNL1        0.0577
     29 CL        137.3897  143.9600  164.4843 Cl      1  UNL1       -0.0822
     30 C         139.0812  143.1780  162.6739 C.ar    1  UNL1        0.0111
     31 C         140.4590  143.2128  162.0819 C.ar    1  UNL1       -0.0034
@<TRIPOS>BOND
     1    21    22    1
     2    22    18    1
     3    18    19    1
     4    18    20    1
     5    18    17    1
     6    17     1    1
     7     1    23    1
     8    23    24    1
     9    24    25    1
    10    25    26   ar
    11    26    27   ar
    12    27    28   ar
    13    28    29    1
    14    28    30   ar
    15    30    31   ar
    16     1     2    1
    17     2     3    1
    18     3     4    1
    19     4     5    1
    20     5     8    1
    21     8     9   ar
    22     9    10   ar
    23    10    11    1
    24    10    12   ar
    25    12    13   ar
    26     5     6    1
    27     6     7    1
    28    31    25   ar
    29     7     2    1
    30    13     8   ar
    31    11    14    1
    32    11    15    1
    33    13    16    1
