@<TRIPOS>MOLECULE
*****
 30 33 0 0 0
SMALL
GASTEIGER

@<TRIPOS>ATOM
      1 C         139.6185  146.4059  161.7257 C.3     1  UNL1        0.0324
      2 C         140.6452  145.3466  161.9977 C.ar    1  UNL1       -0.0071
      3 C         140.7318  144.7174  163.3565 C.ar    1  UNL1        0.0115
      4 C         141.7585  143.6581  163.6285 C.ar    1  UNL1        0.0476
      5 C         142.6985  143.2281  162.5416 C.ar    1  UNL1        0.0158
      6 C         142.6118  143.8573  161.1828 C.ar    1  UNL1        0.0156
      7 C         141.5852  144.9166  160.9108 C.ar    1  UNL1        0.0466
      8 N         141.8451  143.0289  164.9874 N.pl3   1  UNL1       -0.3061
      9 C         143.1024  142.5886  165.6767 C.3     1  UNL1        0.0923
     10 C         142.7239  142.0171  167.0109 C.3     1  UNL1        0.0391
     11 C         141.2325  142.1042  167.1462 C.3     1  UNL1        0.0790
     12 C         140.6894  142.7295  165.8957 C.3     1  UNL1        0.1067
     13 N         140.4260  141.6463  168.3251 N.3     1  UNL1       -0.2736
     14 C         139.7783  140.3025  168.4818 C.3     1  UNL1        0.0721
     15 C         139.0776  140.2775  169.8079 C.3     1  UNL1        0.0187
     16 C         139.2922  141.6059  170.4706 C.3     1  UNL1        0.0174
     17 C         140.1255  142.4519  169.5542 C.3     1  UNL1        0.0576
     18 C         140.5789  143.8568  169.8202 C.3     1  UNL1        0.0173
     19 N         141.4986  145.5458  159.5519 N.am    1  UNL1       -0.2806
     20 C         140.4484  145.0931  158.5813 C.2     1  UNL1        0.2493
     21 O         139.4848  144.0111  158.9695 O.2     1  UNL1       -0.2698
     22 H         142.1310  146.2560  159.2970 H       1  UNL1        0.1552
     23 C         140.3618  145.7223  157.2223 C.ar    1  UNL1        0.0520
     24 C         139.4530  146.8938  156.9948 C.ar    1  UNL1        0.0338
     25 C         139.3664  147.5230  155.6360 C.ar    1  UNL1        0.1403
     26 F         138.4576  148.6945  155.4085 F       1  UNL1       -0.2042
     27 C         140.1886  146.9808  154.5046 C.ar    1  UNL1        0.0293
     28 C         141.0974  145.8093  154.7321 C.ar    1  UNL1       -0.0018
     29 C         141.1840  145.1801  156.0910 C.ar    1  UNL1       -0.0173
     30 C         142.0928  144.0086  156.3185 C.3     1  UNL1        0.0312
@<TRIPOS>BOND
     1     1     2    1
     2     2     3   ar
     3     3     4   ar
     4     4     8    1
     5     8     9    1
     6     9    10    1
     7    10    11    1
     8    11    13    1
     9    13    14    1
    10    14    15    1
    11    15    16    1
    12    16    17    1
    13    17    18    1
    14    11    12    1
    15     4     5   ar
    16     5     6   ar
    17     6     7   ar
    18     7    19    1
    19    19    20   am
    20    20    21    2
    21    20    23    1
    22    23    24   ar
    23    24    25   ar
    24    25    26    1
    25    25    27   ar
    26    27    28   ar
    27    28    29   ar
    28    29    30    1
    29     7     2   ar
    30    29    23   ar
    31    12     8    1
    32    17    13    1
    33    19    22    1
@<TRIPOS>MOLECULE
*****
 30 33 0 0 0
SMALL
GASTEIGER

@<TRIPOS>ATOM
      1 C         144.4370  143.4094  165.3013 C.3     1  UNL1        0.0324
      2 C         143.4648  143.0921  164.2040 C.ar    1  UNL1       -0.0071
      3 C         143.9022  143.1623  162.7710 C.ar    1  UNL1        0.0115
      4 C         142.9299  142.8450  161.6736 C.ar    1  UNL1        0.0476
      5 C         141.5203  142.4575  162.0094 C.ar    1  UNL1        0.0158
      6 C         141.0829  142.3874  163.4425 C.ar    1  UNL1        0.0156
      7 C         142.0551  142.7047  164.5398 C.ar    1  UNL1        0.0466
      8 N         143.3674  142.9151  160.2405 N.pl3   1  UNL1       -0.3061
      9 C         142.5854  143.5118  159.1081 C.3     1  UNL1        0.0923
     10 C         143.3984  143.3663  157.8560 C.3     1  UNL1        0.0391
     11 C         144.6829  142.6796  158.2145 C.3     1  UNL1        0.0790
     12 C         144.6638  142.4008  159.6882 C.3     1  UNL1        0.1067
     13 N         145.7919  142.3328  157.2659 N.3     1  UNL1       -0.2736
     14 C         147.1753  142.9124  157.2771 C.3     1  UNL1        0.0721
     15 C         147.9505  142.2832  156.1576 C.3     1  UNL1        0.0187
     16 C         147.0461  141.3148  155.4546 C.3     1  UNL1        0.0174
     17 C         145.7120  141.3454  156.1395 C.3     1  UNL1        0.0576
     18 C         144.5092  140.5316  155.7640 C.3     1  UNL1        0.0173
     19 N         141.6177  142.6346  165.9729 N.am    1  UNL1       -0.2806
     20 C         141.6615  141.3274  166.7073 C.2     1  UNL1        0.2493
     21 O         142.1427  140.0904  166.0087 O.2     1  UNL1       -0.2698
     22 H         141.3018  143.4465  166.4314 H       1  UNL1        0.1552
     23 C         141.2240  141.2573  168.1404 C.ar    1  UNL1        0.0520
     24 C         139.8754  140.6991  168.4865 C.ar    1  UNL1        0.0338
     25 C         139.4379  140.6290  169.9195 C.ar    1  UNL1        0.1403
     26 F         138.0893  140.0708  170.2655 F       1  UNL1       -0.2042
     27 C         140.3490  141.1170  171.0065 C.ar    1  UNL1        0.0293
     28 C         141.6976  141.6752  170.6605 C.ar    1  UNL1       -0.0018
     29 C         142.1351  141.7453  169.2275 C.ar    1  UNL1       -0.0173
     30 C         143.4837  142.3035  168.8815 C.3     1  UNL1        0.0312
@<TRIPOS>BOND
     1     1     2    1
     2     2     3   ar
     3     3     4   ar
     4     4     8    1
     5     8     9    1
     6     9    10    1
     7    10    11    1
     8    11    13    1
     9    13    14    1
    10    14    15    1
    11    15    16    1
    12    16    17    1
    13    17    18    1
    14    11    12    1
    15     4     5   ar
    16     5     6   ar
    17     6     7   ar
    18     7    19    1
    19    19    20   am
    20    20    21    2
    21    20    23    1
    22    23    24   ar
    23    24    25   ar
    24    25    26    1
    25    25    27   ar
    26    27    28   ar
    27    28    29   ar
    28    29    30    1
    29     7     2   ar
    30    29    23   ar
    31    12     8    1
    32    17    13    1
    33    19    22    1
@<TRIPOS>MOLECULE
*****
 30 33 0 0 0
SMALL
GASTEIGER

@<TRIPOS>ATOM
      1 C         140.8352  144.3527  164.4695 C.3     1  UNL1        0.0324
      2 C         141.9290  143.5350  163.8490 C.ar    1  UNL1       -0.0071
      3 C         142.1787  143.6139  162.3721 C.ar    1  UNL1        0.0115
      4 C         143.2725  142.7962  161.7516 C.ar    1  UNL1        0.0476
      5 C         144.1165  141.8996  162.6081 C.ar    1  UNL1        0.0158
      6 C         143.8668  141.8207  164.0850 C.ar    1  UNL1        0.0156
      7 C         142.7730  142.6384  164.7055 C.ar    1  UNL1        0.0466
      8 N         143.5221  142.8752  160.2746 N.pl3   1  UNL1       -0.3061
      9 C         142.6448  143.5575  159.2673 C.3     1  UNL1        0.0923
     10 C         143.2734  143.3896  157.9158 C.3     1  UNL1        0.0391
     11 C         144.5394  142.6035  158.0878 C.3     1  UNL1        0.0790
     12 C         144.6930  142.2856  159.5456 C.3     1  UNL1        0.1067
     13 N         145.4854  142.2053  156.9940 N.3     1  UNL1       -0.2736
     14 C         145.1358  141.4072  155.7731 C.3     1  UNL1        0.0721
     15 C         146.3815  141.2439  154.9537 C.3     1  UNL1        0.0187
     16 C         147.5010  141.9412  155.6681 C.3     1  UNL1        0.0174
     17 C         146.9472  142.5354  156.9292 C.3     1  UNL1        0.0576
     18 C         147.7196  143.3216  157.9467 C.3     1  UNL1        0.0173
     19 N         142.5234  142.5595  166.1825 N.am    1  UNL1       -0.2806
     20 C         141.4823  141.6218  166.7181 C.2     1  UNL1        0.2493
     21 O         140.6909  140.7630  165.7768 O.2     1  UNL1       -0.2698
     22 H         143.0428  143.1231  166.8004 H       1  UNL1        0.1552
     23 C         141.2326  141.5429  168.1951 C.ar    1  UNL1        0.0520
     24 C         140.3920  142.5856  168.8704 C.ar    1  UNL1        0.0338
     25 C         140.1423  142.5067  170.3474 C.ar    1  UNL1        0.1403
     26 F         139.3017  143.5495  171.0227 F       1  UNL1       -0.2042
     27 C         140.7332  141.3851  171.1490 C.ar    1  UNL1        0.0293
     28 C         141.5739  140.3423  170.4737 C.ar    1  UNL1       -0.0018
     29 C         141.8236  140.4212  168.9968 C.ar    1  UNL1       -0.0173
     30 C         142.6642  139.3785  168.3215 C.3     1  UNL1        0.0312
@<TRIPOS>BOND
     1     1     2    1
     2     2     3   ar
     3     3     4   ar
     4     4     8    1
     5     8     9    1
     6     9    10    1
     7    10    11    1
     8    11    13    1
     9    13    14    1
    10    14    15    1
    11    15    16    1
    12    16    17    1
    13    17    18    1
    14    11    12    1
    15     4     5   ar
    16     5     6   ar
    17     6     7   ar
    18     7    19    1
    19    19    20   am
    20    20    21    2
    21    20    23    1
    22    23    24   ar
    23    24    25   ar
    24    25    26    1
    25    25    27   ar
    26    27    28   ar
    27    28    29   ar
    28    29    30    1
    29     7     2   ar
    30    29    23   ar
    31    12     8    1
    32    17    13    1
    33    19    22    1
@<TRIPOS>MOLECULE
*****
 30 33 0 0 0
SMALL
GASTEIGER

@<TRIPOS>ATOM
      1 C         145.1636  140.6405  163.9159 C.3     1  UNL1        0.0324
      2 C         144.0344  139.8474  163.3278 C.ar    1  UNL1       -0.0071
      3 C         144.0280  139.5241  161.8631 C.ar    1  UNL1        0.0115
      4 C         142.8987  138.7310  161.2751 C.ar    1  UNL1        0.0476
      5 C         141.7759  138.2613  162.1517 C.ar    1  UNL1        0.0158
      6 C         141.7823  138.5846  163.6164 C.ar    1  UNL1        0.0156
      7 C         142.9115  139.3777  164.2044 C.ar    1  UNL1        0.0466
      8 N         142.8924  138.4076  159.8103 N.pl3   1  UNL1       -0.3061
      9 C         143.0578  139.3907  158.6896 C.3     1  UNL1        0.0923
     10 C         142.9871  138.6350  157.3958 C.3     1  UNL1        0.0391
     11 C         142.7781  137.1848  157.7169 C.3     1  UNL1        0.0790
     12 C         142.7195  137.0442  159.2092 C.3     1  UNL1        0.1067
     13 N         142.6501  136.0707  156.7207 N.3     1  UNL1       -0.2736
     14 C         143.6462  134.9726  156.4933 C.3     1  UNL1        0.0721
     15 C         143.1152  134.0824  155.4090 C.3     1  UNL1        0.0187
     16 C         141.7910  134.6304  154.9663 C.3     1  UNL1        0.0174
     17 C         141.5035  135.8593  155.7770 C.3     1  UNL1        0.0576
     18 C         140.2836  136.7248  155.6638 C.3     1  UNL1        0.0173
     19 N         142.9178  139.7011  165.6692 N.am    1  UNL1       -0.2806
     20 C         142.1505  140.8847  166.1793 C.2     1  UNL1        0.2493
     21 O         141.3768  141.7450  165.2247 O.2     1  UNL1       -0.2698
     22 H         143.4257  139.1365  166.2958 H       1  UNL1        0.1552
     23 C         142.1569  141.2081  167.6441 C.ar    1  UNL1        0.0520
     24 C         143.3204  141.9389  168.2457 C.ar    1  UNL1        0.0338
     25 C         143.3268  142.2623  169.7104 C.ar    1  UNL1        0.1403
     26 F         144.4904  142.9931  170.3120 F       1  UNL1       -0.2042
     27 C         142.1696  141.8549  170.5734 C.ar    1  UNL1        0.0293
     28 C         141.0061  141.1240  169.9718 C.ar    1  UNL1       -0.0018
     29 C         140.9997  140.8006  168.5071 C.ar    1  UNL1       -0.0173
     30 C         139.8361  140.0698  167.9054 C.3     1  UNL1        0.0312
@<TRIPOS>BOND
     1     1     2    1
     2     2     3   ar
     3     3     4   ar
     4     4     8    1
     5     8     9    1
     6     9    10    1
     7    10    11    1
     8    11    13    1
     9    13    14    1
    10    14    15    1
    11    15    16    1
    12    16    17    1
    13    17    18    1
    14    11    12    1
    15     4     5   ar
    16     5     6   ar
    17     6     7   ar
    18     7    19    1
    19    19    20   am
    20    20    21    2
    21    20    23    1
    22    23    24   ar
    23    24    25   ar
    24    25    26    1
    25    25    27   ar
    26    27    28   ar
    27    28    29   ar
    28    29    30    1
    29     7     2   ar
    30    29    23   ar
    31    12     8    1
    32    17    13    1
    33    19    22    1
@<TRIPOS>MOLECULE
*****
 30 33 0 0 0
SMALL
GASTEIGER

@<TRIPOS>ATOM
      1 C         140.8011  137.8318  164.2861 C.3     1  UNL1        0.0324
      2 C         141.5172  138.8323  163.4280 C.ar    1  UNL1       -0.0071
      3 C         141.7590  138.5391  161.9770 C.ar    1  UNL1        0.0115
      4 C         142.4751  139.5395  161.1188 C.ar    1  UNL1        0.0476
      5 C         142.9493  140.8332  161.7117 C.ar    1  UNL1        0.0158
      6 C         142.7074  141.1264  163.1627 C.ar    1  UNL1        0.0156
      7 C         141.9914  140.1259  164.0209 C.ar    1  UNL1        0.0466
      8 N         142.7169  139.2463  159.6677 N.pl3   1  UNL1       -0.3061
      9 C         143.3251  140.1847  158.6680 C.3     1  UNL1        0.0923
     10 C         143.3771  139.4815  157.3441 C.3     1  UNL1        0.0391
     11 C         142.8010  138.1084  157.5256 C.3     1  UNL1        0.0790
     12 C         142.3930  137.9630  158.9617 C.3     1  UNL1        0.1067
     13 N         142.6581  137.0641  156.4584 N.3     1  UNL1       -0.2736
     14 C         143.7785  136.3031  155.8138 C.3     1  UNL1        0.0721
     15 C         143.1825  135.3661  154.8054 C.3     1  UNL1        0.0187
     16 C         141.6937  135.5481  154.8268 C.3     1  UNL1        0.0174
     17 C         141.3696  136.5975  155.8484 C.3     1  UNL1        0.0576
     18 C         139.9979  137.0933  156.1985 C.3     1  UNL1        0.0173
     19 N         141.7495  140.4192  165.4720 N.am    1  UNL1       -0.2806
     20 C         140.5201  141.1696  165.8907 C.2     1  UNL1        0.2493
     21 O         139.5326  141.6269  164.8584 O.2     1  UNL1       -0.2698
     22 H         142.3977  140.1191  166.1495 H       1  UNL1        0.1552
     23 C         140.2783  141.4629  167.3418 C.ar    1  UNL1        0.0520
     24 C         140.8313  142.7145  167.9563 C.ar    1  UNL1        0.0338
     25 C         140.5895  143.0078  169.4073 C.ar    1  UNL1        0.1403
     26 F         141.1425  144.2594  170.0218 F       1  UNL1       -0.2042
     27 C         139.7947  142.0495  170.2438 C.ar    1  UNL1        0.0293
     28 C         139.2417  140.7978  169.6293 C.ar    1  UNL1       -0.0018
     29 C         139.4835  140.5045  168.1783 C.ar    1  UNL1       -0.0173
     30 C         138.9305  139.2529  167.5638 C.3     1  UNL1        0.0312
@<TRIPOS>BOND
     1     1     2    1
     2     2     3   ar
     3     3     4   ar
     4     4     8    1
     5     8     9    1
     6     9    10    1
     7    10    11    1
     8    11    13    1
     9    13    14    1
    10    14    15    1
    11    15    16    1
    12    16    17    1
    13    17    18    1
    14    11    12    1
    15     4     5   ar
    16     5     6   ar
    17     6     7   ar
    18     7    19    1
    19    19    20   am
    20    20    21    2
    21    20    23    1
    22    23    24   ar
    23    24    25   ar
    24    25    26    1
    25    25    27   ar
    26    27    28   ar
    27    28    29   ar
    28    29    30    1
    29     7     2   ar
    30    29    23   ar
    31    12     8    1
    32    17    13    1
    33    19    22    1
@<TRIPOS>MOLECULE
*****
 30 33 0 0 0
SMALL
GASTEIGER

@<TRIPOS>ATOM
      1 C         139.9638  144.3660  163.3125 C.3     1  UNL1        0.0324
      2 C         139.2712  143.1939  162.6830 C.ar    1  UNL1       -0.0071
      3 C         139.1728  143.0944  161.1896 C.ar    1  UNL1        0.0115
      4 C         138.4801  141.9222  160.5600 C.ar    1  UNL1        0.0476
      5 C         137.8859  140.8496  161.4239 C.ar    1  UNL1        0.0158
      6 C         137.9843  140.9491  162.9173 C.ar    1  UNL1        0.0156
      7 C         138.6770  142.1212  163.5468 C.ar    1  UNL1        0.0466
      8 N         138.3817  141.8228  159.0665 N.pl3   1  UNL1       -0.3061
      9 C         138.9208  142.8152  158.0793 C.3     1  UNL1        0.0923
     10 C         138.5992  142.3192  156.7007 C.3     1  UNL1        0.0391
     11 C         137.8613  141.0202  156.8359 C.3     1  UNL1        0.0790
     12 C         137.7269  140.7134  158.2980 C.3     1  UNL1        0.1067
     13 N         137.3480  140.1762  155.7071 N.3     1  UNL1       -0.2736
     14 C         138.1711  139.2755  154.8347 C.3     1  UNL1        0.0721
     15 C         137.2532  138.6274  153.8409 C.3     1  UNL1        0.0187
     16 C         135.8629  139.1275  154.0992 C.3     1  UNL1        0.0174
     17 C         135.9215  140.0848  155.2526 C.3     1  UNL1        0.0576
     18 C         134.7578  140.8213  155.8471 C.3     1  UNL1        0.0173
     19 N         138.7754  142.2207  165.0404 N.am    1  UNL1       -0.2806
     20 C         139.8929  141.5317  165.7659 C.2     1  UNL1        0.2493
     21 O         140.9121  140.7433  164.9980 O.2     1  UNL1       -0.2698
     22 H         138.1065  142.7382  165.5444 H       1  UNL1        0.1552
     23 C         139.9913  141.6312  167.2594 C.ar    1  UNL1        0.0520
     24 C         140.6197  142.8380  167.8909 C.ar    1  UNL1        0.0338
     25 C         140.7181  142.9375  169.3843 C.ar    1  UNL1        0.1403
     26 F         141.3465  144.1443  170.0158 F       1  UNL1       -0.2042
     27 C         140.1882  141.8302  170.2463 C.ar    1  UNL1        0.0293
     28 C         139.5598  140.6234  169.6148 C.ar    1  UNL1       -0.0018
     29 C         139.4613  140.5239  168.1213 C.ar    1  UNL1       -0.0173
     30 C         138.8330  139.3171  167.4899 C.3     1  UNL1        0.0312
@<TRIPOS>BOND
     1     1     2    1
     2     2     3   ar
     3     3     4   ar
     4     4     8    1
     5     8     9    1
     6     9    10    1
     7    10    11    1
     8    11    13    1
     9    13    14    1
    10    14    15    1
    11    15    16    1
    12    16    17    1
    13    17    18    1
    14    11    12    1
    15     4     5   ar
    16     5     6   ar
    17     6     7   ar
    18     7    19    1
    19    19    20   am
    20    20    21    2
    21    20    23    1
    22    23    24   ar
    23    24    25   ar
    24    25    26    1
    25    25    27   ar
    26    27    28   ar
    27    28    29   ar
    28    29    30    1
    29     7     2   ar
    30    29    23   ar
    31    12     8    1
    32    17    13    1
    33    19    22    1
@<TRIPOS>MOLECULE
*****
 30 33 0 0 0
SMALL
GASTEIGER

@<TRIPOS>ATOM
      1 C         141.9303  145.2079  163.8935 C.3     1  UNL1        0.0324
      2 C         141.0914  144.2638  163.0843 C.ar    1  UNL1       -0.0071
      3 C         140.8593  144.5282  161.6262 C.ar    1  UNL1        0.0115
      4 C         140.0204  143.5840  160.8169 C.ar    1  UNL1        0.0476
      5 C         139.4136  142.3755  161.4658 C.ar    1  UNL1        0.0158
      6 C         139.6457  142.1110  162.9239 C.ar    1  UNL1        0.0156
      7 C         140.4846  143.0552  163.7332 C.ar    1  UNL1        0.0466
      8 N         139.7884  143.8485  159.3587 N.pl3   1  UNL1       -0.3061
      9 C         139.2182  142.8788  158.3666 C.3     1  UNL1        0.0923
     10 C         139.1632  143.5601  157.0314 C.3     1  UNL1        0.0391
     11 C         139.6994  144.9511  157.1984 C.3     1  UNL1        0.0790
     12 C         140.0858  145.1293  158.6367 C.3     1  UNL1        0.1067
     13 N         139.8268  145.9826  156.1168 N.3     1  UNL1       -0.2736
     14 C         138.9903  147.2196  155.9754 C.3     1  UNL1        0.0721
     15 C         139.4597  147.9598  154.7580 C.3     1  UNL1        0.0187
     16 C         140.5862  147.1802  154.1472 C.3     1  UNL1        0.0174
     17 C         140.8131  145.9582  154.9870 C.3     1  UNL1        0.0576
     18 C         141.8451  144.8980  154.7402 C.3     1  UNL1        0.0173
     19 N         140.7167  142.7907  165.1914 N.am    1  UNL1       -0.2806
     20 C         141.7399  141.7797  165.6167 C.2     1  UNL1        0.2493
     21 O         142.5311  141.0332  164.5838 O.2     1  UNL1       -0.2698
     22 H         140.1974  143.2806  165.8692 H       1  UNL1        0.1552
     23 C         141.9720  141.5152  167.0749 C.ar    1  UNL1        0.0520
     24 C         143.1067  142.1889  167.7880 C.ar    1  UNL1        0.0338
     25 C         143.3388  141.9245  169.2461 C.ar    1  UNL1        0.1403
     26 F         144.4735  142.5982  169.9592 F       1  UNL1       -0.2042
     27 C         142.4362  140.9863  169.9911 C.ar    1  UNL1        0.0293
     28 C         141.3014  140.3127  169.2780 C.ar    1  UNL1       -0.0018
     29 C         141.0693  140.5771  167.8199 C.ar    1  UNL1       -0.0173
     30 C         139.9346  139.9034  167.1068 C.3     1  UNL1        0.0312
@<TRIPOS>BOND
     1     1     2    1
     2     2     3   ar
     3     3     4   ar
     4     4     8    1
     5     8     9    1
     6     9    10    1
     7    10    11    1
     8    11    13    1
     9    13    14    1
    10    14    15    1
    11    15    16    1
    12    16    17    1
    13    17    18    1
    14    11    12    1
    15     4     5   ar
    16     5     6   ar
    17     6     7   ar
    18     7    19    1
    19    19    20   am
    20    20    21    2
    21    20    23    1
    22    23    24   ar
    23    24    25   ar
    24    25    26    1
    25    25    27   ar
    26    27    28   ar
    27    28    29   ar
    28    29    30    1
    29     7     2   ar
    30    29    23   ar
    31    12     8    1
    32    17    13    1
    33    19    22    1
@<TRIPOS>MOLECULE
*****
 30 33 0 0 0
SMALL
GASTEIGER

@<TRIPOS>ATOM
      1 C         139.1840  138.4386  165.0393 C.3     1  UNL1        0.0324
      2 C         139.9127  139.2209  163.9872 C.ar    1  UNL1       -0.0071
      3 C         140.0132  138.6857  162.5896 C.ar    1  UNL1        0.0115
      4 C         140.7419  139.4680  161.5374 C.ar    1  UNL1        0.0476
      5 C         141.3700  140.7856  161.8829 C.ar    1  UNL1        0.0158
      6 C         141.2695  141.3209  163.2805 C.ar    1  UNL1        0.0156
      7 C         140.5408  140.5385  164.3326 C.ar    1  UNL1        0.0466
      8 N         140.8424  138.9327  160.1398 N.pl3   1  UNL1       -0.3061
      9 C         139.7212  138.8425  159.1474 C.3     1  UNL1        0.0923
     10 C         140.2676  138.2477  157.8835 C.3     1  UNL1        0.0391
     11 C         141.7266  137.9702  158.0946 C.3     1  UNL1        0.0790
     12 C         142.0818  138.3936  159.4891 C.3     1  UNL1        0.1067
     13 N         142.6654  137.3740  157.0881 N.3     1  UNL1       -0.2736
     14 C         142.9120  135.9105  156.8712 C.3     1  UNL1        0.0721
     15 C         143.9215  135.7687  155.7708 C.3     1  UNL1        0.0187
     16 C         144.2987  137.1446  155.3077 C.3     1  UNL1        0.0174
     17 C         143.5224  138.1368  156.1218 C.3     1  UNL1        0.0576
     18 C         143.5911  139.6296  155.9925 C.3     1  UNL1        0.0173
     19 N         140.4403  141.0739  165.7303 N.am    1  UNL1       -0.2806
     20 C         141.4578  140.6795  166.7594 C.2     1  UNL1        0.2493
     21 O         142.5758  139.7499  166.3910 O.2     1  UNL1       -0.2698
     22 H         139.7065  141.6840  165.9721 H       1  UNL1        0.1552
     23 C         141.3573  141.2149  168.1571 C.ar    1  UNL1        0.0520
     24 C         142.4183  142.1336  168.6864 C.ar    1  UNL1        0.0338
     25 C         142.3179  142.6689  170.0840 C.ar    1  UNL1        0.1403
     26 F         143.3789  143.5877  170.6133 F       1  UNL1       -0.2042
     27 C         141.1564  142.2855  170.9523 C.ar    1  UNL1        0.0293
     28 C         140.0954  141.3667  170.4230 C.ar    1  UNL1       -0.0018
     29 C         140.1959  140.8314  169.0254 C.ar    1  UNL1       -0.0173
     30 C         139.1349  139.9127  168.4961 C.3     1  UNL1        0.0312
@<TRIPOS>BOND
     1     1     2    1
     2     2     3   ar
     3     3     4   ar
     4     4     8    1
     5     8     9    1
     6     9    10    1
     7    10    11    1
     8    11    13    1
     9    13    14    1
    10    14    15    1
    11    15    16    1
    12    16    17    1
    13    17    18    1
    14    11    12    1
    15     4     5   ar
    16     5     6   ar
    17     6     7   ar
    18     7    19    1
    19    19    20   am
    20    20    21    2
    21    20    23    1
    22    23    24   ar
    23    24    25   ar
    24    25    26    1
    25    25    27   ar
    26    27    28   ar
    27    28    29   ar
    28    29    30    1
    29     7     2   ar
    30    29    23   ar
    31    12     8    1
    32    17    13    1
    33    19    22    1
@<TRIPOS>MOLECULE
*****
 30 33 0 0 0
SMALL
GASTEIGER

@<TRIPOS>ATOM
      1 C         139.3559  140.0817  158.7020 C.3     1  UNL1        0.0324
      2 C         140.5787  139.2765  159.0283 C.ar    1  UNL1       -0.0071
      3 C         141.1584  138.3452  158.0053 C.ar    1  UNL1        0.0115
      4 C         142.3812  137.5401  158.3316 C.ar    1  UNL1        0.0476
      5 C         143.0243  137.6661  159.6809 C.ar    1  UNL1        0.0158
      6 C         142.4445  138.5974  160.7039 C.ar    1  UNL1        0.0156
      7 C         141.2217  139.4026  160.3776 C.ar    1  UNL1        0.0466
      8 N         142.9610  136.6087  157.3086 N.pl3   1  UNL1       -0.3061
      9 C         143.6460  137.0123  156.0366 C.3     1  UNL1        0.0923
     10 C         144.0659  135.7634  155.3198 C.3     1  UNL1        0.0391
     11 C         143.6404  134.5878  156.1488 C.3     1  UNL1        0.0790
     12 C         142.9575  135.1103  157.3779 C.3     1  UNL1        0.1067
     13 N         143.8593  133.1435  155.8084 N.3     1  UNL1       -0.2736
     14 C         143.2968  132.4230  154.6191 C.3     1  UNL1        0.0721
     15 C         143.7690  131.0002  154.6732 C.3     1  UNL1        0.0187
     16 C         144.6232  130.8415  155.8959 C.3     1  UNL1        0.0174
     17 C         144.6790  132.1661  156.5975 C.3     1  UNL1        0.0576
     18 C         145.4238  132.4615  157.8656 C.3     1  UNL1        0.0173
     19 N         140.6419  140.3339  161.4007 N.am    1  UNL1       -0.2806
     20 C         141.0294  141.7829  161.4009 C.2     1  UNL1        0.2493
     21 O         141.9968  142.3008  160.3781 O.2     1  UNL1       -0.2698
     22 H         140.0070  139.9941  162.0720 H       1  UNL1        0.1552
     23 C         140.4497  142.7142  162.4240 C.ar    1  UNL1        0.0520
     24 C         139.0790  143.2895  162.2231 C.ar    1  UNL1        0.0338
     25 C         138.4992  144.2208  163.2461 C.ar    1  UNL1        0.1403
     26 F         137.1286  144.7961  163.0453 F       1  UNL1       -0.2042
     27 C         139.2901  144.5768  164.4699 C.ar    1  UNL1        0.0293
     28 C         140.6608  144.0015  164.6708 C.ar    1  UNL1       -0.0018
     29 C         141.2405  143.0702  163.6478 C.ar    1  UNL1       -0.0173
     30 C         142.6112  142.4949  163.8486 C.3     1  UNL1        0.0312
@<TRIPOS>BOND
     1     1     2    1
     2     2     3   ar
     3     3     4   ar
     4     4     8    1
     5     8     9    1
     6     9    10    1
     7    10    11    1
     8    11    13    1
     9    13    14    1
    10    14    15    1
    11    15    16    1
    12    16    17    1
    13    17    18    1
    14    11    12    1
    15     4     5   ar
    16     5     6   ar
    17     6     7   ar
    18     7    19    1
    19    19    20   am
    20    20    21    2
    21    20    23    1
    22    23    24   ar
    23    24    25   ar
    24    25    26    1
    25    25    27   ar
    26    27    28   ar
    27    28    29   ar
    28    29    30    1
    29     7     2   ar
    30    29    23   ar
    31    12     8    1
    32    17    13    1
    33    19    22    1
