@<TRIPOS>MOLECULE
*****
 38 41 0 0 0
SMALL
GASTEIGER

@<TRIPOS>ATOM
      1 O         140.3283  139.9172  158.9604 O.2     1  UNL1       -0.2733
      2 C         141.5250  139.0226  159.0937 C.2     1  UNL1        0.2425
      3 N         141.7252  138.2194  160.3446 N.am    1  UNL1       -0.3032
      4 H         142.5106  137.6322  160.4321 H       1  UNL1        0.1495
      5 C         140.7287  138.3107  161.4621 C.3     1  UNL1        0.0889
      6 C         139.2750  137.9506  161.3788 C.3     1  UNL1        0.0383
      7 C         138.6590  138.1955  162.7244 C.3     1  UNL1        0.0738
      8 N         139.7320  138.7069  163.6393 N.3     1  UNL1       -0.2725
      9 C         141.0112  138.7780  162.8592 C.3     1  UNL1        0.0919
     10 C         139.5567  139.0813  165.0812 C.3     1  UNL1        0.0577
     11 C         138.3649  138.5854  165.8452 C.3     1  UNL1        0.0187
     12 C         138.1895  138.9598  167.2871 C.3     1  UNL1        0.0326
     13 C         139.2059  139.8301  167.9650 C.3     1  UNL1        0.1085
     14 O         138.2521  139.6099  169.1015 O.3     1  UNL1       -0.3826
     15 C         140.3977  140.3260  167.2009 C.3     1  UNL1        0.0326
     16 C         140.5731  139.9516  165.7591 C.3     1  UNL1        0.0187
     17 H         137.5198  139.0473  168.8046 H       1  UNL1        0.2107
     18 C         139.8911  140.6240  169.0376 C.ar    1  UNL1        0.0209
     19 C         140.4686  141.9714  168.7202 C.ar    1  UNL1        0.0011
     20 C         141.1538  142.7652  169.7928 C.ar    1  UNL1        0.0204
     21 C         141.2613  142.2116  171.1828 C.ar    1  UNL1        0.0989
     22 N         140.6836  140.8641  171.5001 N.ar    1  UNL1       -0.2426
     23 C         139.9985  140.0703  170.4274 C.ar    1  UNL1        0.0968
     24 C         142.5214  138.9313  157.9763 C.3     1  UNL1        0.1759
     25 N         143.0035  137.5899  157.5091 N.am    1  UNL1       -0.2931
     26 C         142.0810  136.6847  156.7478 C.2     1  UNL1        0.2462
     27 O         140.6762  137.1209  156.4538 O.2     1  UNL1       -0.2701
     28 H         143.9255  137.3036  157.7021 H       1  UNL1        0.1502
     29 C         142.5631  135.3433  156.2806 C.ar    1  UNL1        0.0533
     30 C         142.0978  134.7960  154.9639 C.ar    1  UNL1        0.0045
     31 C         142.5800  133.4546  154.4968 C.ar    1  UNL1        0.0001
     32 C         143.5275  132.6606  155.3463 C.ar    1  UNL1        0.0039
     33 C         143.9928  133.2080  156.6631 C.ar    1  UNL1        0.0716
     34 C         143.5107  134.5493  157.1302 C.ar    1  UNL1        0.0084
     35 C         144.9403  132.4140  157.5126 C.3     1  UNL1        0.4186
     36 F         145.8879  131.6200  158.3622 F       1  UNL1       -0.1659
     37 F         145.1389  131.4446  156.3853 F       1  UNL1       -0.1659
     38 F         144.7418  133.3833  158.6400 F       1  UNL1       -0.1659
@<TRIPOS>BOND
     1     1     2    2
     2     2    24    1
     3    24    25    1
     4    25    26   am
     5    26    27    2
     6    26    29    1
     7    29    30   ar
     8    30    31   ar
     9    31    32   ar
    10    32    33   ar
    11    33    35    1
    12    35    36    1
    13    35    37    1
    14    35    38    1
    15    33    34   ar
    16     2     3   am
    17     5     3    1
    18     5     6    1
    19     6     7    1
    20     7     8    1
    21    10     8    1
    22    10    11    1
    23    11    12    1
    24    12    13    1
    25    13    14    1
    26    13    18    1
    27    18    19   ar
    28    19    20   ar
    29    20    21   ar
    30    21    22   ar
    31    22    23   ar
    32    13    15    1
    33    15    16    1
    34     8     9    1
    35    34    29   ar
    36     9     5    1
    37    16    10    1
    38    23    18   ar
    39    25    28    1
    40     3     4    1
    41    14    17    1
@<TRIPOS>MOLECULE
*****
 38 41 0 0 0
SMALL
GASTEIGER

@<TRIPOS>ATOM
      1 O         141.7211  140.2753  158.8965 O.2     1  UNL1       -0.2733
      2 C         142.9064  139.4265  158.5434 C.2     1  UNL1        0.2425
      3 N         144.0334  139.2683  159.5206 N.am    1  UNL1       -0.3032
      4 H         144.8113  138.7112  159.2888 H       1  UNL1        0.1495
      5 C         143.9751  139.9590  160.8509 C.3     1  UNL1        0.0889
      6 C         144.2366  141.4148  161.1007 C.3     1  UNL1        0.0383
      7 C         144.0682  141.6706  162.5691 C.3     1  UNL1        0.0738
      8 N         143.7027  140.3729  163.2269 N.3     1  UNL1       -0.2725
      9 C         143.6452  139.3152  162.1649 C.3     1  UNL1        0.0919
     10 C         143.4408  140.1689  164.6896 C.3     1  UNL1        0.0577
     11 C         143.6762  138.8253  165.3134 C.3     1  UNL1        0.0187
     12 C         143.4143  138.6213  166.7762 C.3     1  UNL1        0.0326
     13 C         142.9169  139.7610  167.6152 C.3     1  UNL1        0.1085
     14 O         142.9882  138.6831  168.6559 O.3     1  UNL1       -0.3826
     15 C         142.6814  141.1046  166.9914 C.3     1  UNL1        0.0326
     16 C         142.9434  141.3086  165.5286 C.3     1  UNL1        0.0187
     17 H         143.3038  137.8611  168.2490 H       1  UNL1        0.2107
     18 C         142.4443  140.5262  168.8156 C.ar    1  UNL1        0.0209
     19 C         142.9919  141.8942  169.0963 C.ar    1  UNL1        0.0011
     20 C         142.5192  142.6595  170.2967 C.ar    1  UNL1        0.0204
     21 C         141.4990  142.0567  171.2165 C.ar    1  UNL1        0.0989
     22 N         140.9514  140.6887  170.9357 N.ar    1  UNL1       -0.2426
     23 C         141.4240  139.9235  169.7353 C.ar    1  UNL1        0.0968
     24 C         142.9647  138.7358  157.2132 C.3     1  UNL1        0.1759
     25 N         142.5752  137.2916  157.1003 N.am    1  UNL1       -0.2931
     26 C         143.4300  136.3438  156.3123 C.2     1  UNL1        0.2462
     27 O         144.6742  136.8400  155.6373 O.2     1  UNL1       -0.2701
     28 H         141.7586  136.9659  157.5433 H       1  UNL1        0.1502
     29 C         143.0405  134.8996  156.1993 C.ar    1  UNL1        0.0533
     30 C         141.8061  134.5128  155.4400 C.ar    1  UNL1        0.0045
     31 C         141.4167  133.0687  155.3271 C.ar    1  UNL1        0.0001
     32 C         142.2617  132.0113  155.9735 C.ar    1  UNL1        0.0039
     33 C         143.4961  132.3980  156.7328 C.ar    1  UNL1        0.0716
     34 C         143.8855  133.8421  156.8457 C.ar    1  UNL1        0.0084
     35 C         144.3411  131.3406  157.3791 C.3     1  UNL1        0.4186
     36 F         145.1862  130.2832  158.0255 F       1  UNL1       -0.1659
     37 F         143.1019  130.6293  157.8357 F       1  UNL1       -0.1659
     38 F         145.5804  132.0518  156.9226 F       1  UNL1       -0.1659
@<TRIPOS>BOND
     1     1     2    2
     2     2    24    1
     3    24    25    1
     4    25    26   am
     5    26    27    2
     6    26    29    1
     7    29    30   ar
     8    30    31   ar
     9    31    32   ar
    10    32    33   ar
    11    33    35    1
    12    35    36    1
    13    35    37    1
    14    35    38    1
    15    33    34   ar
    16     2     3   am
    17     5     3    1
    18     5     6    1
    19     6     7    1
    20     7     8    1
    21    10     8    1
    22    10    11    1
    23    11    12    1
    24    12    13    1
    25    13    14    1
    26    13    18    1
    27    18    19   ar
    28    19    20   ar
    29    20    21   ar
    30    21    22   ar
    31    22    23   ar
    32    13    15    1
    33    15    16    1
    34     8     9    1
    35    34    29   ar
    36     9     5    1
    37    16    10    1
    38    23    18   ar
    39    25    28    1
    40     3     4    1
    41    14    17    1
@<TRIPOS>MOLECULE
*****
 38 41 0 0 0
SMALL
GASTEIGER

@<TRIPOS>ATOM
      1 O         139.7837  139.7500  158.7204 O.2     1  UNL1       -0.2733
      2 C         138.3242  140.0926  158.6712 C.2     1  UNL1        0.2425
      3 N         137.4661  139.8954  159.8855 N.am    1  UNL1       -0.3032
      4 H         136.5082  140.1202  159.8532 H       1  UNL1        0.1495
      5 C         138.0676  139.3556  161.1493 C.3     1  UNL1        0.0889
      6 C         138.7796  138.0436  161.2965 C.3     1  UNL1        0.0383
      7 C         139.2146  137.9102  162.7258 C.3     1  UNL1        0.0738
      8 N         138.7715  139.1398  163.4620 N.3     1  UNL1       -0.2725
      9 C         138.0626  140.0330  162.4876 C.3     1  UNL1        0.0919
     10 C         138.9976  139.4258  164.9170 C.3     1  UNL1        0.0577
     11 C         138.0709  138.8512  165.9471 C.3     1  UNL1        0.0187
     12 C         138.2970  139.1372  167.4021 C.3     1  UNL1        0.0326
     13 C         139.4498  139.9978  167.8270 C.3     1  UNL1        0.1085
     14 O         138.8513  139.6843  169.1662 O.3     1  UNL1       -0.3826
     15 C         140.3765  140.5724  166.7969 C.3     1  UNL1        0.0326
     16 C         140.1504  140.2864  165.3419 C.3     1  UNL1        0.0187
     17 H         138.0730  139.1177  169.0478 H       1  UNL1        0.2107
     18 C         140.3947  140.7496  168.7170 C.ar    1  UNL1        0.0209
     19 C         140.4171  142.2491  168.6907 C.ar    1  UNL1        0.0011
     20 C         141.3620  143.0008  169.5807 C.ar    1  UNL1        0.0204
     21 C         142.2845  142.2529  170.4971 C.ar    1  UNL1        0.0989
     22 N         142.2621  140.7532  170.5233 N.ar    1  UNL1       -0.2426
     23 C         141.3172  140.0016  169.6333 C.ar    1  UNL1        0.0968
     24 C         137.7227  140.6324  157.4075 C.3     1  UNL1        0.1759
     25 N         136.2375  140.8138  157.3017 N.am    1  UNL1       -0.2931
     26 C         135.4663  140.0837  156.2423 C.2     1  UNL1        0.2462
     27 O         136.1803  139.1721  155.2888 O.2     1  UNL1       -0.2701
     28 H         135.7688  141.4121  157.9275 H       1  UNL1        0.1502
     29 C         133.9810  140.2651  156.1365 C.ar    1  UNL1        0.0533
     30 C         133.4198  141.4120  155.3494 C.ar    1  UNL1        0.0045
     31 C         131.9346  141.5934  155.2436 C.ar    1  UNL1        0.0001
     32 C         131.0106  140.6279  155.9249 C.ar    1  UNL1        0.0039
     33 C         131.5719  139.4809  156.7119 C.ar    1  UNL1        0.0716
     34 C         133.0571  139.2996  156.8177 C.ar    1  UNL1        0.0084
     35 C         130.6480  138.5154  157.3932 C.3     1  UNL1        0.4186
     36 F         129.7241  137.5499  158.0744 F       1  UNL1       -0.1659
     37 F         131.6337  138.3625  158.5134 F       1  UNL1       -0.1659
     38 F         129.6622  138.6683  156.2729 F       1  UNL1       -0.1659
@<TRIPOS>BOND
     1     1     2    2
     2     2    24    1
     3    24    25    1
     4    25    26   am
     5    26    27    2
     6    26    29    1
     7    29    30   ar
     8    30    31   ar
     9    31    32   ar
    10    32    33   ar
    11    33    35    1
    12    35    36    1
    13    35    37    1
    14    35    38    1
    15    33    34   ar
    16     2     3   am
    17     5     3    1
    18     5     6    1
    19     6     7    1
    20     7     8    1
    21    10     8    1
    22    10    11    1
    23    11    12    1
    24    12    13    1
    25    13    14    1
    26    13    18    1
    27    18    19   ar
    28    19    20   ar
    29    20    21   ar
    30    21    22   ar
    31    22    23   ar
    32    13    15    1
    33    15    16    1
    34     8     9    1
    35    34    29   ar
    36     9     5    1
    37    16    10    1
    38    23    18   ar
    39    25    28    1
    40     3     4    1
    41    14    17    1
@<TRIPOS>MOLECULE
*****
 38 41 0 0 0
SMALL
GASTEIGER

@<TRIPOS>ATOM
      1 O         141.9904  145.6028  159.0733 O.2     1  UNL1       -0.2733
      2 C         140.5960  145.2274  158.6675 C.2     1  UNL1        0.2425
      3 N         139.6159  144.7551  159.7000 N.am    1  UNL1       -0.3032
      4 H         138.7007  144.5087  159.4336 H       1  UNL1        0.1495
      5 C         140.0301  144.6580  161.1384 C.3     1  UNL1        0.0889
      6 C         140.3349  145.8112  162.0479 C.3     1  UNL1        0.0383
      7 C         140.7055  145.2567  163.3914 C.3     1  UNL1        0.0738
      8 N         140.6297  143.7606  163.3123 N.3     1  UNL1       -0.2725
      9 C         140.2123  143.3907  161.9199 C.3     1  UNL1        0.0919
     10 C         140.9202  142.8028  164.4295 C.3     1  UNL1        0.0577
     11 C         141.8282  141.6318  164.1963 C.3     1  UNL1        0.0187
     12 C         142.1187  140.6739  165.3135 C.3     1  UNL1        0.0326
     13 C         141.5014  140.8871  166.6639 C.3     1  UNL1        0.1085
     14 O         142.2901  139.6397  166.9320 O.3     1  UNL1       -0.3826
     15 C         140.5935  142.0581  166.8971 C.3     1  UNL1        0.0326
     16 C         140.3029  143.0160  165.7799 C.3     1  UNL1        0.0187
     17 H         142.7575  139.3729  166.1250 H       1  UNL1        0.2107
     18 C         141.1579  140.6670  168.1074 C.ar    1  UNL1        0.0209
     19 C         139.7227  140.5520  168.5277 C.ar    1  UNL1        0.0011
     20 C         139.3792  140.3319  169.9712 C.ar    1  UNL1        0.0204
     21 C         140.4712  140.2269  170.9943 C.ar    1  UNL1        0.0989
     22 N         141.9065  140.3419  170.5739 N.ar    1  UNL1       -0.2426
     23 C         142.2498  140.5620  169.1304 C.ar    1  UNL1        0.0968
     24 C         140.1817  145.3244  157.2291 C.3     1  UNL1        0.1759
     25 N         140.3611  146.6129  156.4822 N.am    1  UNL1       -0.2931
     26 C         139.3314  147.0502  155.4830 C.2     1  UNL1        0.2462
     27 O         138.1222  146.1992  155.2308 O.2     1  UNL1       -0.2701
     28 H         141.1548  147.1714  156.6477 H       1  UNL1        0.1502
     29 C         139.5108  148.3386  154.7361 C.ar    1  UNL1        0.0533
     30 C         140.2202  148.3469  153.4145 C.ar    1  UNL1        0.0045
     31 C         140.3995  149.6353  152.6677 C.ar    1  UNL1        0.0001
     32 C         139.8695  150.9154  153.2424 C.ar    1  UNL1        0.0039
     33 C         139.1601  150.9072  154.5640 C.ar    1  UNL1        0.0716
     34 C         138.9808  149.6188  155.3108 C.ar    1  UNL1        0.0084
     35 C         138.6301  152.1873  155.1387 C.3     1  UNL1        0.4186
     36 F         138.1001  153.4674  155.7135 F       1  UNL1       -0.1659
     37 F         138.1787  152.6135  153.7732 F       1  UNL1       -0.1659
     38 F         139.0815  151.7612  156.5042 F       1  UNL1       -0.1659
@<TRIPOS>BOND
     1     1     2    2
     2     2    24    1
     3    24    25    1
     4    25    26   am
     5    26    27    2
     6    26    29    1
     7    29    30   ar
     8    30    31   ar
     9    31    32   ar
    10    32    33   ar
    11    33    35    1
    12    35    36    1
    13    35    37    1
    14    35    38    1
    15    33    34   ar
    16     2     3   am
    17     5     3    1
    18     5     6    1
    19     6     7    1
    20     7     8    1
    21    10     8    1
    22    10    11    1
    23    11    12    1
    24    12    13    1
    25    13    14    1
    26    13    18    1
    27    18    19   ar
    28    19    20   ar
    29    20    21   ar
    30    21    22   ar
    31    22    23   ar
    32    13    15    1
    33    15    16    1
    34     8     9    1
    35    34    29   ar
    36     9     5    1
    37    16    10    1
    38    23    18   ar
    39    25    28    1
    40     3     4    1
    41    14    17    1
@<TRIPOS>MOLECULE
*****
 38 41 0 0 0
SMALL
GASTEIGER

@<TRIPOS>ATOM
      1 O         143.7548  140.0140  159.2174 O.2     1  UNL1       -0.2733
      2 C         143.0232  138.7539  158.8610 C.2     1  UNL1        0.2425
      3 N         142.4716  137.8750  159.9441 N.am    1  UNL1       -0.3032
      4 H         141.9914  137.0480  159.7102 H       1  UNL1        0.1495
      5 C         142.6516  138.2561  161.3838 C.3     1  UNL1        0.0889
      6 C         143.9621  138.4396  162.0900 C.3     1  UNL1        0.0383
      7 C         143.6731  138.8175  163.5126 C.3     1  UNL1        0.0738
      8 N         142.1839  138.8677  163.6855 N.3     1  UNL1       -0.2725
      9 C         141.5526  138.5207  162.3698 C.3     1  UNL1        0.0919
     10 C         141.4542  139.2054  164.9517 C.3     1  UNL1        0.0577
     11 C         140.0955  138.6256  165.2118 C.3     1  UNL1        0.0187
     12 C         139.3657  138.9634  166.4781 C.3     1  UNL1        0.0326
     13 C         139.9948  139.8810  167.4842 C.3     1  UNL1        0.1085
     14 O         138.6981  139.5840  168.1774 O.3     1  UNL1       -0.3826
     15 C         141.3535  140.4608  167.2242 C.3     1  UNL1        0.0326
     16 C         142.0832  140.1231  165.9579 C.3     1  UNL1        0.0187
     17 H         138.1686  138.9838  167.6293 H       1  UNL1        0.2107
     18 C         140.1734  140.6955  168.7311 C.ar    1  UNL1        0.0209
     19 C         140.2320  142.1919  168.6475 C.ar    1  UNL1        0.0011
     20 C         140.4107  143.0064  169.8944 C.ar    1  UNL1        0.0204
     21 C         140.5307  142.3243  171.2250 C.ar    1  UNL1        0.0989
     22 N         140.4720  140.8277  171.3086 N.ar    1  UNL1       -0.2426
     23 C         140.2934  140.0133  170.0616 C.ar    1  UNL1        0.0968
     24 C         142.8432  138.3728  157.4215 C.3     1  UNL1        0.1759
     25 N         142.4299  136.9765  157.0613 N.am    1  UNL1       -0.2931
     26 C         143.3229  136.1270  156.2065 C.2     1  UNL1        0.2462
     27 O         144.6292  136.6737  155.7117 O.2     1  UNL1       -0.2701
     28 H         141.5726  136.6177  157.3861 H       1  UNL1        0.1502
     29 C         142.9097  134.7307  155.8463 C.ar    1  UNL1        0.0533
     30 C         141.5038  134.4558  155.4014 C.ar    1  UNL1        0.0045
     31 C         141.0907  133.0596  155.0413 C.ar    1  UNL1        0.0001
     32 C         142.0833  131.9382  155.1260 C.ar    1  UNL1        0.0039
     33 C         143.4892  132.2131  155.5709 C.ar    1  UNL1        0.0716
     34 C         143.9023  133.6093  155.9311 C.ar    1  UNL1        0.0084
     35 C         144.4818  131.0917  155.6557 C.3     1  UNL1        0.4186
     36 F         145.4745  129.9704  155.7405 F       1  UNL1       -0.1659
     37 F         143.5144  130.1825  154.9576 F       1  UNL1       -0.1659
     38 F         145.4493  132.0009  156.3539 F       1  UNL1       -0.1659
@<TRIPOS>BOND
     1     1     2    2
     2     2    24    1
     3    24    25    1
     4    25    26   am
     5    26    27    2
     6    26    29    1
     7    29    30   ar
     8    30    31   ar
     9    31    32   ar
    10    32    33   ar
    11    33    35    1
    12    35    36    1
    13    35    37    1
    14    35    38    1
    15    33    34   ar
    16     2     3   am
    17     5     3    1
    18     5     6    1
    19     6     7    1
    20     7     8    1
    21    10     8    1
    22    10    11    1
    23    11    12    1
    24    12    13    1
    25    13    14    1
    26    13    18    1
    27    18    19   ar
    28    19    20   ar
    29    20    21   ar
    30    21    22   ar
    31    22    23   ar
    32    13    15    1
    33    15    16    1
    34     8     9    1
    35    34    29   ar
    36     9     5    1
    37    16    10    1
    38    23    18   ar
    39    25    28    1
    40     3     4    1
    41    14    17    1
@<TRIPOS>MOLECULE
*****
 38 41 0 0 0
SMALL
GASTEIGER

@<TRIPOS>ATOM
      1 O         143.1195  137.2579  160.4321 O.2     1  UNL1       -0.2733
      2 C         142.2279  137.8949  159.4078 C.2     1  UNL1        0.2425
      3 N         140.9302  138.5193  159.8274 N.am    1  UNL1       -0.3032
      4 H         140.3450  138.9374  159.1551 H       1  UNL1        0.1495
      5 C         140.5241  138.5067  161.2714 C.3     1  UNL1        0.0889
      6 C         139.2450  137.9501  161.8227 C.3     1  UNL1        0.0383
      7 C         139.2562  138.1479  163.3096 C.3     1  UNL1        0.0738
      8 N         140.5423  138.8268  163.6772 N.3     1  UNL1       -0.2725
      9 C         141.3259  139.0486  162.4175 C.3     1  UNL1        0.0919
     10 C         140.9698  139.2157  165.0614 C.3     1  UNL1        0.0577
     11 C         142.2849  138.7382  165.6022 C.3     1  UNL1        0.0187
     12 C         142.7123  139.1270  166.9864 C.3     1  UNL1        0.0326
     13 C         141.8246  139.9934  167.8298 C.3     1  UNL1        0.1085
     14 O         142.9695  139.7925  168.7779 O.3     1  UNL1       -0.3826
     15 C         140.5095  140.4709  167.2891 C.3     1  UNL1        0.0326
     16 C         140.0820  140.0820  165.9049 C.3     1  UNL1        0.0187
     17 H         143.6428  139.2345  168.3581 H       1  UNL1        0.2107
     18 C         141.3345  140.7900  169.0026 C.ar    1  UNL1        0.0209
     19 C         140.9741  142.2356  168.8293 C.ar    1  UNL1        0.0011
     20 C         140.4840  143.0322  170.0020 C.ar    1  UNL1        0.0204
     21 C         140.3544  142.3831  171.3481 C.ar    1  UNL1        0.0989
     22 N         140.7149  140.9373  171.5214 N.ar    1  UNL1       -0.2426
     23 C         141.2049  140.1408  170.3486 C.ar    1  UNL1        0.0968
     24 C         142.6339  137.9075  157.9639 C.3     1  UNL1        0.1759
     25 N         142.1478  136.8316  157.0386 N.am    1  UNL1       -0.2931
     26 C         143.0446  136.3140  155.9534 C.2     1  UNL1        0.2462
     27 O         144.4276  136.8723  155.7934 O.2     1  UNL1       -0.2701
     28 H         141.2401  136.4652  157.1436 H       1  UNL1        0.1502
     29 C         142.5585  135.2380  155.0281 C.ar    1  UNL1        0.0533
     30 C         142.2684  135.5587  153.5918 C.ar    1  UNL1        0.0045
     31 C         141.7823  134.4827  152.6666 C.ar    1  UNL1        0.0001
     32 C         141.5863  133.0862  153.1777 C.ar    1  UNL1        0.0039
     33 C         141.8764  132.7656  154.6140 C.ar    1  UNL1        0.0716
     34 C         142.3625  133.8415  155.5392 C.ar    1  UNL1        0.0084
     35 C         141.6804  131.3690  155.1251 C.3     1  UNL1        0.4186
     36 F         141.4844  129.9725  155.6362 F       1  UNL1       -0.1659
     37 F         143.1553  131.2523  155.3720 F       1  UNL1       -0.1659
     38 F         140.2054  131.4857  154.8783 F       1  UNL1       -0.1659
@<TRIPOS>BOND
     1     1     2    2
     2     2    24    1
     3    24    25    1
     4    25    26   am
     5    26    27    2
     6    26    29    1
     7    29    30   ar
     8    30    31   ar
     9    31    32   ar
    10    32    33   ar
    11    33    35    1
    12    35    36    1
    13    35    37    1
    14    35    38    1
    15    33    34   ar
    16     2     3   am
    17     5     3    1
    18     5     6    1
    19     6     7    1
    20     7     8    1
    21    10     8    1
    22    10    11    1
    23    11    12    1
    24    12    13    1
    25    13    14    1
    26    13    18    1
    27    18    19   ar
    28    19    20   ar
    29    20    21   ar
    30    21    22   ar
    31    22    23   ar
    32    13    15    1
    33    15    16    1
    34     8     9    1
    35    34    29   ar
    36     9     5    1
    37    16    10    1
    38    23    18   ar
    39    25    28    1
    40     3     4    1
    41    14    17    1
@<TRIPOS>MOLECULE
*****
 38 41 0 0 0
SMALL
GASTEIGER

@<TRIPOS>ATOM
      1 O         141.5790  140.2063  159.7488 O.2     1  UNL1       -0.2733
      2 C         140.2894  140.6379  159.1159 C.2     1  UNL1        0.2425
      3 N         138.9857  140.3543  159.8013 N.am    1  UNL1       -0.3032
      4 H         138.1393  140.6375  159.3859 H       1  UNL1        0.1495
      5 C         138.9715  139.6390  161.1198 C.3     1  UNL1        0.0889
      6 C         138.8574  138.1565  161.3174 C.3     1  UNL1        0.0383
      7 C         138.8843  137.8820  162.7918 C.3     1  UNL1        0.0738
      8 N         139.0152  139.1949  163.5055 N.3     1  UNL1       -0.2725
      9 C         139.0691  140.2807  162.4721 C.3     1  UNL1        0.0919
     10 C         139.0806  139.3879  164.9915 C.3     1  UNL1        0.0577
     11 C         137.9642  138.8923  165.8621 C.3     1  UNL1        0.0187
     12 C         138.0297  139.0853  167.3482 C.3     1  UNL1        0.0326
     13 C         139.2116  139.7741  167.9637 C.3     1  UNL1        0.1085
     14 O         138.4087  139.4824  169.1967 O.3     1  UNL1       -0.3826
     15 C         140.3280  140.2698  167.0931 C.3     1  UNL1        0.0326
     16 C         140.2625  140.0767  165.6070 C.3     1  UNL1        0.0187
     17 H         137.5903  139.0245  168.9489 H       1  UNL1        0.2107
     18 C         140.1146  140.3615  169.0074 C.ar    1  UNL1        0.0209
     19 C         141.5706  140.0018  169.0280 C.ar    1  UNL1        0.0011
     20 C         142.4737  140.5892  170.0718 C.ar    1  UNL1        0.0204
     21 C         141.9206  141.5365  171.0950 C.ar    1  UNL1        0.0989
     22 N         140.4645  141.8962  171.0743 N.ar    1  UNL1       -0.2426
     23 C         139.5615  141.3087  170.0306 C.ar    1  UNL1        0.0968
     24 C         140.3035  141.3531  157.7975 C.3     1  UNL1        0.1759
     25 N         139.0173  141.6084  157.0689 N.am    1  UNL1       -0.2931
     26 C         138.2148  140.4577  156.5382 C.2     1  UNL1        0.2462
     27 O         138.6983  139.0516  156.7360 O.2     1  UNL1       -0.2701
     28 H         138.7000  142.5313  156.9391 H       1  UNL1        0.1502
     29 C         136.9287  140.7130  155.8096 C.ar    1  UNL1        0.0533
     30 C         136.9541  141.2278  154.4010 C.ar    1  UNL1        0.0045
     31 C         135.6680  141.4831  153.6725 C.ar    1  UNL1        0.0001
     32 C         134.3565  141.2236  154.3526 C.ar    1  UNL1        0.0039
     33 C         134.3311  140.7088  155.7612 C.ar    1  UNL1        0.0716
     34 C         135.6172  140.4535  156.4897 C.ar    1  UNL1        0.0084
     35 C         133.0196  140.4493  156.4414 C.3     1  UNL1        0.4186
     36 F         131.7080  140.1897  157.1215 F       1  UNL1       -0.1659
     37 F         132.4758  141.7304  155.8817 F       1  UNL1       -0.1659
     38 F         133.5633  139.1682  157.0010 F       1  UNL1       -0.1659
@<TRIPOS>BOND
     1     1     2    2
     2     2    24    1
     3    24    25    1
     4    25    26   am
     5    26    27    2
     6    26    29    1
     7    29    30   ar
     8    30    31   ar
     9    31    32   ar
    10    32    33   ar
    11    33    35    1
    12    35    36    1
    13    35    37    1
    14    35    38    1
    15    33    34   ar
    16     2     3   am
    17     5     3    1
    18     5     6    1
    19     6     7    1
    20     7     8    1
    21    10     8    1
    22    10    11    1
    23    11    12    1
    24    12    13    1
    25    13    14    1
    26    13    18    1
    27    18    19   ar
    28    19    20   ar
    29    20    21   ar
    30    21    22   ar
    31    22    23   ar
    32    13    15    1
    33    15    16    1
    34     8     9    1
    35    34    29   ar
    36     9     5    1
    37    16    10    1
    38    23    18   ar
    39    25    28    1
    40     3     4    1
    41    14    17    1
@<TRIPOS>MOLECULE
*****
 38 41 0 0 0
SMALL
GASTEIGER

@<TRIPOS>ATOM
      1 O         143.8867  139.5386  158.2115 O.2     1  UNL1       -0.2733
      2 C         142.6293  138.7931  157.8750 C.2     1  UNL1        0.2425
      3 N         141.7252  138.3140  158.9718 N.am    1  UNL1       -0.3032
      4 H         140.8999  137.8247  158.7509 H       1  UNL1        0.1495
      5 C         142.0784  138.5803  160.4051 C.3     1  UNL1        0.0889
      6 C         143.1156  137.8520  161.2075 C.3     1  UNL1        0.0383
      7 C         143.1346  138.4432  162.5860 C.3     1  UNL1        0.0738
      8 N         142.1092  139.5369  162.6355 N.3     1  UNL1       -0.2725
      9 C         141.4565  139.6216  161.2876 C.3     1  UNL1        0.0919
     10 C         141.7923  140.3952  163.8241 C.3     1  UNL1        0.0577
     11 C         140.6043  141.3104  163.7929 C.3     1  UNL1        0.0187
     12 C         140.2873  142.1687  164.9815 C.3     1  UNL1        0.0326
     13 C         141.1584  142.1118  166.2014 C.3     1  UNL1        0.1085
     14 O         140.1514  143.1301  166.6476 O.3     1  UNL1       -0.3826
     15 C         142.3464  141.1966  166.2326 C.3     1  UNL1        0.0326
     16 C         142.6634  140.3383  165.0440 C.3     1  UNL1        0.0187
     17 H         139.5034  143.2753  165.9407 H       1  UNL1        0.2107
     18 C         141.6797  142.4085  167.5762 C.ar    1  UNL1        0.0209
     19 C         140.7313  142.8045  168.6687 C.ar    1  UNL1        0.0011
     20 C         141.2526  143.1012  170.0435 C.ar    1  UNL1        0.0204
     21 C         142.7225  143.0020  170.3259 C.ar    1  UNL1        0.0989
     22 N         143.6710  142.6060  169.2333 N.ar    1  UNL1       -0.2426
     23 C         143.1496  142.3092  167.8585 C.ar    1  UNL1        0.0968
     24 C         142.2760  138.5269  156.4418 C.3     1  UNL1        0.1759
     25 N         142.1275  137.1155  155.9557 N.am    1  UNL1       -0.2931
     26 C         143.3395  136.3310  155.5489 C.2     1  UNL1        0.2462
     27 O         144.7000  136.9576  155.6282 O.2     1  UNL1       -0.2701
     28 H         141.2345  136.7043  155.9036 H       1  UNL1        0.1502
     29 C         143.1909  134.9196  155.0628 C.ar    1  UNL1        0.0533
     30 C         142.3833  134.6314  153.8321 C.ar    1  UNL1        0.0045
     31 C         142.2348  133.2202  153.3460 C.ar    1  UNL1        0.0001
     32 C         142.8939  132.0972  154.0907 C.ar    1  UNL1        0.0039
     33 C         143.7016  132.3854  155.3213 C.ar    1  UNL1        0.0716
     34 C         143.8501  133.7967  155.8074 C.ar    1  UNL1        0.0084
     35 C         144.3607  131.2624  156.0659 C.3     1  UNL1        0.4186
     36 F         145.0198  130.1395  156.8105 F       1  UNL1       -0.1659
     37 F         144.6403  132.1873  157.2133 F       1  UNL1       -0.1659
     38 F         144.0811  130.3376  154.9186 F       1  UNL1       -0.1659
@<TRIPOS>BOND
     1     1     2    2
     2     2    24    1
     3    24    25    1
     4    25    26   am
     5    26    27    2
     6    26    29    1
     7    29    30   ar
     8    30    31   ar
     9    31    32   ar
    10    32    33   ar
    11    33    35    1
    12    35    36    1
    13    35    37    1
    14    35    38    1
    15    33    34   ar
    16     2     3   am
    17     5     3    1
    18     5     6    1
    19     6     7    1
    20     7     8    1
    21    10     8    1
    22    10    11    1
    23    11    12    1
    24    12    13    1
    25    13    14    1
    26    13    18    1
    27    18    19   ar
    28    19    20   ar
    29    20    21   ar
    30    21    22   ar
    31    22    23   ar
    32    13    15    1
    33    15    16    1
    34     8     9    1
    35    34    29   ar
    36     9     5    1
    37    16    10    1
    38    23    18   ar
    39    25    28    1
    40     3     4    1
    41    14    17    1
@<TRIPOS>MOLECULE
*****
 38 41 0 0 0
SMALL
GASTEIGER

@<TRIPOS>ATOM
      1 O         141.6417  140.2855  158.5441 O.2     1  UNL1       -0.2733
      2 C         141.5734  138.7954  158.3864 C.2     1  UNL1        0.2425
      3 N         142.0871  137.9016  159.4759 N.am    1  UNL1       -0.3032
      4 H         142.0423  136.9236  159.3724 H       1  UNL1        0.1495
      5 C         142.6690  138.4979  160.7233 C.3     1  UNL1        0.0889
      6 C         143.9709  139.2362  160.8233 C.3     1  UNL1        0.0383
      7 C         144.1577  139.6552  162.2514 C.3     1  UNL1        0.0738
      8 N         142.9712  139.1758  163.0341 N.3     1  UNL1       -0.2725
      9 C         142.0512  138.4605  162.0897 C.3     1  UNL1        0.0919
     10 C         142.7446  139.3764  164.5033 C.3     1  UNL1        0.0577
     11 C         143.4986  138.5454  165.4987 C.3     1  UNL1        0.0187
     12 C         143.2720  138.7460  166.9679 C.3     1  UNL1        0.0326
     13 C         142.2915  139.7775  167.4415 C.3     1  UNL1        0.1085
     14 O         142.7616  139.2400  168.7606 O.3     1  UNL1       -0.3826
     15 C         141.5375  140.6085  166.4461 C.3     1  UNL1        0.0326
     16 C         141.7641  140.4079  164.9769 C.3     1  UNL1        0.0187
     17 H         143.4195  138.5433  168.6099 H       1  UNL1        0.2107
     18 C         141.4742  140.6224  168.3734 C.ar    1  UNL1        0.0209
     19 C         141.4395  142.1119  168.1997 C.ar    1  UNL1        0.0011
     20 C         140.6222  142.9568  169.1315 C.ar    1  UNL1        0.0204
     21 C         139.8396  142.3121  170.2370 C.ar    1  UNL1        0.0989
     22 N         139.8744  140.8225  170.4106 N.ar    1  UNL1       -0.2426
     23 C         140.6917  139.9777  169.4788 C.ar    1  UNL1        0.0968
     24 C         140.9915  138.1991  157.1391 C.3     1  UNL1        0.1759
     25 N         141.1780  136.7394  156.8480 N.am    1  UNL1       -0.2931
     26 C         142.5482  136.2009  156.5612 C.2     1  UNL1        0.2462
     27 O         143.7321  137.1219  156.5655 O.2     1  UNL1       -0.2701
     28 H         140.4009  136.1348  156.8452 H       1  UNL1        0.1502
     29 C         142.7347  134.7412  156.2701 C.ar    1  UNL1        0.0533
     30 C         143.9622  134.0301  156.7572 C.ar    1  UNL1        0.0045
     31 C         144.1486  132.5705  156.4661 C.ar    1  UNL1        0.0001
     32 C         143.1074  131.8220  155.6879 C.ar    1  UNL1        0.0039
     33 C         141.8798  132.5331  155.2008 C.ar    1  UNL1        0.0716
     34 C         141.6935  133.9927  155.4919 C.ar    1  UNL1        0.0084
     35 C         140.8386  131.7846  154.4225 C.3     1  UNL1        0.4186
     36 F         139.7974  131.0361  153.6443 F       1  UNL1       -0.1659
     37 F         140.9119  130.6570  155.4090 F       1  UNL1       -0.1659
     38 F         140.7653  132.9122  153.4361 F       1  UNL1       -0.1659
@<TRIPOS>BOND
     1     1     2    2
     2     2    24    1
     3    24    25    1
     4    25    26   am
     5    26    27    2
     6    26    29    1
     7    29    30   ar
     8    30    31   ar
     9    31    32   ar
    10    32    33   ar
    11    33    35    1
    12    35    36    1
    13    35    37    1
    14    35    38    1
    15    33    34   ar
    16     2     3   am
    17     5     3    1
    18     5     6    1
    19     6     7    1
    20     7     8    1
    21    10     8    1
    22    10    11    1
    23    11    12    1
    24    12    13    1
    25    13    14    1
    26    13    18    1
    27    18    19   ar
    28    19    20   ar
    29    20    21   ar
    30    21    22   ar
    31    22    23   ar
    32    13    15    1
    33    15    16    1
    34     8     9    1
    35    34    29   ar
    36     9     5    1
    37    16    10    1
    38    23    18   ar
    39    25    28    1
    40     3     4    1
    41    14    17    1
