@<TRIPOS>MOLECULE
*****
 34 37 0 0 0
SMALL
GASTEIGER

@<TRIPOS>ATOM
      1 C         143.0530  138.6175  164.5666 C.ar    1  UNL1        0.1377
      2 C         141.9028  137.8974  163.9274 C.ar    1  UNL1        0.1397
      3 N         141.8661  137.7150  162.4390 N.ar    1  UNL1       -0.2027
      4 C         142.9796  138.2526  161.5898 C.ar    1  UNL1        0.2367
      5 N         144.1297  138.9726  162.2290 N.ar    1  UNL1       -0.1828
      6 C         144.1665  139.1551  163.7174 C.ar    1  UNL1        0.2339
      7 C         142.2607  140.0208  168.1933 C.3     1  UNL1        0.1109
      8 N         142.2240  139.8384  166.7050 N.am    1  UNL1       -0.2990
      9 C         143.0897  138.7999  166.0550 C.2     1  UNL1        0.2532
     10 O         143.9920  137.9440  166.8936 O.2     1  UNL1       -0.2699
     11 H         141.6317  140.4001  166.1546 H       1  UNL1        0.1498
     12 N         140.7893  137.3598  164.7766 N.pl3   1  UNL1       -0.3178
     13 H         140.9921  136.7713  165.5394 H       1  UNL1        0.1482
     14 C         139.3670  137.7188  164.4636 C.3     1  UNL1        0.0881
     15 C         138.9921  139.1495  164.2136 C.3     1  UNL1        0.0196
     16 C         139.0694  140.1508  165.3278 C.3     1  UNL1        0.0017
     17 C         138.6946  141.5815  165.0777 C.3     1  UNL1        0.0001
     18 C         138.2424  142.0109  163.7136 C.3     1  UNL1        0.0000
     19 C         138.1935  143.2561  164.5486 C.3     1  UNL1        0.0000
     20 C         137.7122  144.0343  163.3600 C.3     1  UNL1        0.0000
     21 C         137.7611  142.7892  162.5249 C.3     1  UNL1        0.0000
     22 C         138.1650  141.0096  162.5994 C.3     1  UNL1        0.0001
     23 C         138.5399  139.5789  162.8494 C.3     1  UNL1        0.0017
     24 C         142.9429  138.0702  160.1014 C.1     1  UNL1        0.1401
     25 N         142.9062  137.8877  158.6130 N.1     1  UNL1       -0.1876
     26 O         145.3166  139.8752  164.3566 O.3     1  UNL1       -0.4600
     27 C         145.6547  141.2738  163.9328 C.3     1  UNL1        0.2071
     28 C         144.5625  142.2841  163.7412 C.3     1  UNL1        0.0466
     29 C         144.4711  143.0553  162.4579 C.3     1  UNL1        0.0211
     30 C         143.3790  144.0655  162.2663 C.3     1  UNL1        0.0723
     31 N         142.3784  144.3045  163.3580 N.3     1  UNL1       -0.2715
     32 C         141.2862  145.3147  163.1664 C.3     1  UNL1        0.0896
     33 C         142.4698  143.5332  164.6412 C.3     1  UNL1        0.0723
     34 C         143.5619  142.5230  164.8328 C.3     1  UNL1        0.0211
@<TRIPOS>BOND
     1     7     8    1
     2     8     9   am
     3     9    10    2
     4     9     1    1
     5     1     2   ar
     6     2    12    1
     7    12    14    1
     8    14    15    1
     9    15    16    1
    10    16    17    1
    11    17    18    1
    12    18    19    1
    13    19    20    1
    14    20    21    1
    15    18    22    1
    16    22    23    1
    17     2     3   ar
    18     3     4   ar
    19     4    24    1
    20    24    25    3
    21     4     5   ar
    22     5     6   ar
    23     6    26    1
    24    26    27    1
    25    27    28    1
    26    28    29    1
    27    29    30    1
    28    30    31    1
    29    31    32    1
    30    31    33    1
    31    33    34    1
    32     6     1   ar
    33    34    28    1
    34    23    15    1
    35    21    18    1
    36     8    11    1
    37    12    13    1
@<TRIPOS>MOLECULE
*****
 34 37 0 0 0
SMALL
GASTEIGER

@<TRIPOS>ATOM
      1 C         138.4883  139.8063  164.4165 C.ar    1  UNL1        0.1377
      2 C         138.8318  138.6489  163.5261 C.ar    1  UNL1        0.1397
      3 N         138.6402  138.7613  162.0427 N.ar    1  UNL1       -0.2027
      4 C         138.1052  140.0309  161.4496 C.ar    1  UNL1        0.2367
      5 N         137.7617  141.1881  162.3398 N.ar    1  UNL1       -0.1828
      6 C         137.9533  141.0759  163.8234 C.ar    1  UNL1        0.2339
      7 C         139.7731  140.5440  168.0982 C.3     1  UNL1        0.1109
      8 N         139.5815  140.6563  166.6148 N.am    1  UNL1       -0.2990
      9 C         138.6799  139.6939  165.9000 C.2     1  UNL1        0.2532
     10 O         137.9698  138.6193  166.6687 O.2     1  UNL1       -0.2699
     11 H         140.0476  141.3617  166.1103 H       1  UNL1        0.1498
     12 N         139.3668  137.3793  164.1193 N.pl3   1  UNL1       -0.3178
     13 H         138.7775  136.7988  164.6531 H       1  UNL1        0.1482
     14 C         140.7997  136.9943  163.8992 C.3     1  UNL1        0.0881
     15 C         141.8522  138.0565  163.7814 C.3     1  UNL1        0.0196
     16 C         142.4667  138.3587  162.4468 C.3     1  UNL1        0.0017
     17 C         143.5192  139.4209  162.3290 C.3     1  UNL1        0.0001
     18 C         143.9572  140.1810  163.5457 C.3     1  UNL1        0.0000
     19 C         144.7735  140.7452  162.4207 C.3     1  UNL1        0.0000
     20 C         145.4457  141.6833  163.3790 C.3     1  UNL1        0.0000
     21 C         144.6294  141.1191  164.5039 C.3     1  UNL1        0.0000
     22 C         143.3427  139.8789  164.8802 C.3     1  UNL1        0.0001
     23 C         142.2902  138.8166  164.9981 C.3     1  UNL1        0.0017
     24 C         137.9136  140.1432  159.9661 C.1     1  UNL1        0.1401
     25 N         137.7221  140.2555  158.4826 N.1     1  UNL1       -0.1876
     26 O         137.6098  142.2332  164.7137 O.3     1  UNL1       -0.4600
     27 C         137.9755  143.6290  164.3039 C.3     1  UNL1        0.2071
     28 C         139.4120  143.9881  164.0635 C.3     1  UNL1        0.0466
     29 C         140.4967  143.3005  164.8384 C.3     1  UNL1        0.0211
     30 C         141.9331  143.6595  164.5979 C.3     1  UNL1        0.0723
     31 N         142.2847  144.7062  163.5826 N.3     1  UNL1       -0.2715
     32 C         143.7212  145.0653  163.3422 C.3     1  UNL1        0.0896
     33 C         141.1999  145.3938  162.8077 C.3     1  UNL1        0.0723
     34 C         139.7636  145.0347  163.0482 C.3     1  UNL1        0.0211
@<TRIPOS>BOND
     1     7     8    1
     2     8     9   am
     3     9    10    2
     4     9     1    1
     5     1     2   ar
     6     2    12    1
     7    12    14    1
     8    14    15    1
     9    15    16    1
    10    16    17    1
    11    17    18    1
    12    18    19    1
    13    19    20    1
    14    20    21    1
    15    18    22    1
    16    22    23    1
    17     2     3   ar
    18     3     4   ar
    19     4    24    1
    20    24    25    3
    21     4     5   ar
    22     5     6   ar
    23     6    26    1
    24    26    27    1
    25    27    28    1
    26    28    29    1
    27    29    30    1
    28    30    31    1
    29    31    32    1
    30    31    33    1
    31    33    34    1
    32     6     1   ar
    33    34    28    1
    34    23    15    1
    35    21    18    1
    36     8    11    1
    37    12    13    1
@<TRIPOS>MOLECULE
*****
 34 37 0 0 0
SMALL
GASTEIGER

@<TRIPOS>ATOM
      1 C         142.5375  143.9159  163.5278 C.ar    1  UNL1        0.1377
      2 C         143.3883  143.8261  162.2956 C.ar    1  UNL1        0.1397
      3 N         142.8363  144.2593  160.9699 N.ar    1  UNL1       -0.2027
      4 C         141.4335  144.7824  160.8763 C.ar    1  UNL1        0.2367
      5 N         140.5828  144.8723  162.1084 N.ar    1  UNL1       -0.1828
      6 C         141.1348  144.4390  163.4342 C.ar    1  UNL1        0.2339
      7 C         142.8128  142.1978  167.0946 C.3     1  UNL1        0.1109
      8 N         142.2608  142.6311  165.7689 N.am    1  UNL1       -0.2990
      9 C         143.0895  143.4827  164.8535 C.2     1  UNL1        0.2532
     10 O         144.4703  143.9011  165.2639 O.2     1  UNL1       -0.2699
     11 H         141.3545  142.3564  165.4996 H       1  UNL1        0.1498
     12 N         144.7910  143.3030  162.3892 N.pl3   1  UNL1       -0.3178
     13 H         145.5205  143.8988  162.6756 H       1  UNL1        0.1482
     14 C         145.0822  141.8720  162.0464 C.3     1  UNL1        0.0881
     15 C         144.2057  140.7791  162.5822 C.3     1  UNL1        0.0196
     16 C         143.2015  140.1161  161.6867 C.3     1  UNL1        0.0017
     17 C         142.3250  139.0231  162.2224 C.3     1  UNL1        0.0001
     18 C         142.4526  138.5931  163.6538 C.3     1  UNL1        0.0000
     19 C         141.3707  137.7251  163.0826 C.3     1  UNL1        0.0000
     20 C         141.2129  137.0474  164.4115 C.3     1  UNL1        0.0000
     21 C         142.2948  137.9154  164.9827 C.3     1  UNL1        0.0000
     22 C         143.4568  139.2561  164.5493 C.3     1  UNL1        0.0001
     23 C         144.3333  140.3491  164.0135 C.3     1  UNL1        0.0017
     24 C         140.8815  145.2156  159.5506 C.1     1  UNL1        0.1401
     25 N         140.3295  145.6488  158.2248 N.1     1  UNL1       -0.1876
     26 O         140.2841  144.5289  164.6663 O.3     1  UNL1       -0.4600
     27 C         138.9000  143.9509  164.6659 C.3     1  UNL1        0.2071
     28 C         138.6419  142.6232  164.0171 C.3     1  UNL1        0.0466
     29 C         137.9259  142.5583  162.7006 C.3     1  UNL1        0.0211
     30 C         137.6679  141.2308  162.0519 C.3     1  UNL1        0.0723
     31 N         138.1257  139.9680  162.7197 N.3     1  UNL1       -0.2715
     32 C         137.8676  138.6404  162.0709 C.3     1  UNL1        0.0896
     33 C         138.8417  140.0329  164.0362 C.3     1  UNL1        0.0723
     34 C         139.0997  141.3605  164.6849 C.3     1  UNL1        0.0211
@<TRIPOS>BOND
     1     7     8    1
     2     8     9   am
     3     9    10    2
     4     9     1    1
     5     1     2   ar
     6     2    12    1
     7    12    14    1
     8    14    15    1
     9    15    16    1
    10    16    17    1
    11    17    18    1
    12    18    19    1
    13    19    20    1
    14    20    21    1
    15    18    22    1
    16    22    23    1
    17     2     3   ar
    18     3     4   ar
    19     4    24    1
    20    24    25    3
    21     4     5   ar
    22     5     6   ar
    23     6    26    1
    24    26    27    1
    25    27    28    1
    26    28    29    1
    27    29    30    1
    28    30    31    1
    29    31    32    1
    30    31    33    1
    31    33    34    1
    32     6     1   ar
    33    34    28    1
    34    23    15    1
    35    21    18    1
    36     8    11    1
    37    12    13    1
@<TRIPOS>MOLECULE
*****
 34 37 0 0 0
SMALL
GASTEIGER

@<TRIPOS>ATOM
      1 C         142.9108  138.5180  164.4832 C.ar    1  UNL1        0.1377
      2 C         144.0765  138.9557  163.6468 C.ar    1  UNL1        0.1397
      3 N         144.0575  138.7404  162.1625 N.ar    1  UNL1       -0.2027
      4 C         142.8728  138.0873  161.5145 C.ar    1  UNL1        0.2367
      5 N         141.7071  137.6495  162.3508 N.ar    1  UNL1       -0.1828
      6 C         141.7260  137.8649  163.8352 C.ar    1  UNL1        0.2339
      7 C         141.9068  139.8132  168.0977 C.3     1  UNL1        0.1109
      8 N         141.8878  139.5979  166.6134 N.am    1  UNL1       -0.2990
      9 C         142.9298  138.7333  165.9675 C.2     1  UNL1        0.2532
     10 O         143.9906  138.0842  166.8060 O.2     1  UNL1       -0.2699
     11 H         141.1915  140.0239  166.0630 H       1  UNL1        0.1498
     12 N         145.2612  139.6089  164.2948 N.pl3   1  UNL1       -0.3178
     13 H         145.8266  139.0965  164.9170 H       1  UNL1        0.1482
     14 C         145.5845  141.0425  163.9949 C.3     1  UNL1        0.0881
     15 C         144.4781  142.0262  163.7533 C.3     1  UNL1        0.0196
     16 C         144.3207  142.6614  162.4036 C.3     1  UNL1        0.0017
     17 C         143.2143  143.6450  162.1621 C.3     1  UNL1        0.0001
     18 C         142.2654  143.9935  163.2703 C.3     1  UNL1        0.0000
     19 C         141.8062  144.8062  162.0960 C.3     1  UNL1        0.0000
     20 C         140.7007  145.3847  162.9287 C.3     1  UNL1        0.0000
     21 C         141.1599  144.5721  164.1029 C.3     1  UNL1        0.0000
     22 C         142.4229  143.3583  164.6200 C.3     1  UNL1        0.0001
     23 C         143.5292  142.3747  164.8615 C.3     1  UNL1        0.0017
     24 C         142.8538  137.8719  160.0302 C.1     1  UNL1        0.1401
     25 N         142.8348  137.6566  158.5458 N.1     1  UNL1       -0.1876
     26 O         140.5603  137.4271  164.6715 O.3     1  UNL1       -0.4600
     27 C         139.1612  137.7391  164.2298 C.3     1  UNL1        0.2071
     28 C         138.7702  139.1539  163.9208 C.3     1  UNL1        0.0466
     29 C         138.8264  140.1993  164.9951 C.3     1  UNL1        0.0211
     30 C         138.4354  141.6140  164.6861 C.3     1  UNL1        0.0723
     31 N         137.9882  141.9834  163.3028 N.3     1  UNL1       -0.2715
     32 C         137.5972  143.3983  162.9938 C.3     1  UNL1        0.0896
     33 C         137.9320  140.9381  162.2285 C.3     1  UNL1        0.0723
     34 C         138.3230  139.5234  162.5375 C.3     1  UNL1        0.0211
@<TRIPOS>BOND
     1     7     8    1
     2     8     9   am
     3     9    10    2
     4     9     1    1
     5     1     2   ar
     6     2    12    1
     7    12    14    1
     8    14    15    1
     9    15    16    1
    10    16    17    1
    11    17    18    1
    12    18    19    1
    13    19    20    1
    14    20    21    1
    15    18    22    1
    16    22    23    1
    17     2     3   ar
    18     3     4   ar
    19     4    24    1
    20    24    25    3
    21     4     5   ar
    22     5     6   ar
    23     6    26    1
    24    26    27    1
    25    27    28    1
    26    28    29    1
    27    29    30    1
    28    30    31    1
    29    31    32    1
    30    31    33    1
    31    33    34    1
    32     6     1   ar
    33    34    28    1
    34    23    15    1
    35    21    18    1
    36     8    11    1
    37    12    13    1
@<TRIPOS>MOLECULE
*****
 34 37 0 0 0
SMALL
GASTEIGER

@<TRIPOS>ATOM
      1 C         143.1226  138.8662  162.8492 C.ar    1  UNL1        0.1377
      2 C         142.1020  138.0692  163.6063 C.ar    1  UNL1        0.1397
      3 N         142.0379  138.1606  165.1021 N.ar    1  UNL1       -0.2027
      4 C         142.9944  139.0490  165.8409 C.ar    1  UNL1        0.2367
      5 N         144.0150  139.8460  165.0838 N.ar    1  UNL1       -0.1828
      6 C         144.0791  139.7546  163.5879 C.ar    1  UNL1        0.2339
      7 C         143.5610  139.9048  159.0440 C.3     1  UNL1        0.1109
      8 N         143.4970  139.9962  160.5399 N.am    1  UNL1       -0.2990
      9 C         143.1867  138.7747  161.3534 C.2     1  UNL1        0.2532
     10 O         142.9404  137.4618  160.6710 O.2     1  UNL1       -0.2699
     11 H         143.6586  140.8579  160.9877 H       1  UNL1        0.1498
     12 N         141.1454  137.1808  162.8676 N.pl3   1  UNL1       -0.3178
     13 H         141.4806  136.3931  162.3813 H       1  UNL1        0.1482
     14 C         139.6782  137.4924  162.8697 C.3     1  UNL1        0.0881
     15 C         139.2134  138.9130  162.9960 C.3     1  UNL1        0.0196
     16 C         139.2983  139.8375  161.8179 C.3     1  UNL1        0.0017
     17 C         138.8335  141.2581  161.9442 C.3     1  UNL1        0.0001
     18 C         138.2838  141.7541  163.2487 C.3     1  UNL1        0.0000
     19 C         138.2142  142.9336  162.3245 C.3     1  UNL1        0.0000
     20 C         137.6264  143.7632  163.4274 C.3     1  UNL1        0.0000
     21 C         137.6960  142.5837  164.3516 C.3     1  UNL1        0.0000
     22 C         138.1989  140.8296  164.4268 C.3     1  UNL1        0.0001
     23 C         138.6637  139.4090  164.3005 C.3     1  UNL1        0.0017
     24 C         142.9304  139.1405  167.3367 C.1     1  UNL1        0.1401
     25 N         142.8663  139.2320  168.8326 N.1     1  UNL1       -0.1876
     26 O         145.0997  140.5515  162.8309 O.3     1  UNL1       -0.4600
     27 C         145.2653  142.0161  163.1097 C.3     1  UNL1        0.2071
     28 C         144.0999  142.9467  162.9483 C.3     1  UNL1        0.0466
     29 C         143.5535  143.2342  161.5813 C.3     1  UNL1        0.0211
     30 C         142.3882  144.1648  161.4200 C.3     1  UNL1        0.0723
     31 N         141.7693  144.8078  162.6256 N.3     1  UNL1       -0.2715
     32 C         140.6039  145.7384  162.4642 C.3     1  UNL1        0.0896
     33 C         142.3157  144.5202  163.9926 C.3     1  UNL1        0.0723
     34 C         143.4810  143.5897  164.1540 C.3     1  UNL1        0.0211
@<TRIPOS>BOND
     1     7     8    1
     2     8     9   am
     3     9    10    2
     4     9     1    1
     5     1     2   ar
     6     2    12    1
     7    12    14    1
     8    14    15    1
     9    15    16    1
    10    16    17    1
    11    17    18    1
    12    18    19    1
    13    19    20    1
    14    20    21    1
    15    18    22    1
    16    22    23    1
    17     2     3   ar
    18     3     4   ar
    19     4    24    1
    20    24    25    3
    21     4     5   ar
    22     5     6   ar
    23     6    26    1
    24    26    27    1
    25    27    28    1
    26    28    29    1
    27    29    30    1
    28    30    31    1
    29    31    32    1
    30    31    33    1
    31    33    34    1
    32     6     1   ar
    33    34    28    1
    34    23    15    1
    35    21    18    1
    36     8    11    1
    37    12    13    1
@<TRIPOS>MOLECULE
*****
 34 37 0 0 0
SMALL
GASTEIGER

@<TRIPOS>ATOM
      1 C         138.6143  142.7005  163.3363 C.ar    1  UNL1        0.1377
      2 C         138.7255  143.5712  162.1198 C.ar    1  UNL1        0.1397
      3 N         138.4860  142.9907  160.7576 N.ar    1  UNL1       -0.2027
      4 C         138.1355  141.5395  160.6118 C.ar    1  UNL1        0.2367
      5 N         138.0244  140.6689  161.8282 N.ar    1  UNL1       -0.1828
      6 C         138.2638  141.2494  163.1905 C.ar    1  UNL1        0.2339
      7 C         140.0281  143.1777  167.0137 C.3     1  UNL1        0.1109
      8 N         139.7887  142.5971  165.6515 N.am    1  UNL1       -0.2990
      9 C         138.8538  143.2811  164.6985 C.2     1  UNL1        0.2532
     10 O         138.1583  144.5455  165.1077 O.2     1  UNL1       -0.2699
     11 H         140.2452  141.7672  165.3829 H       1  UNL1        0.1498
     12 N         139.0760  145.0223  162.2657 N.pl3   1  UNL1       -0.3178
     13 H         138.3911  145.6675  162.5554 H       1  UNL1        0.1482
     14 C         140.4700  145.4906  161.9700 C.3     1  UNL1        0.0881
     15 C         141.6456  144.6617  162.3952 C.3     1  UNL1        0.0196
     16 C         142.3647  143.8095  161.3919 C.3     1  UNL1        0.0017
     17 C         143.5403  142.9806  161.8172 C.3     1  UNL1        0.0001
     18 C         143.9969  143.0040  163.2458 C.3     1  UNL1        0.0000
     19 C         144.9354  142.0604  162.5536 C.3     1  UNL1        0.0000
     20 C         145.6596  141.8317  163.8473 C.3     1  UNL1        0.0000
     21 C         144.7211  142.7753  164.5394 C.3     1  UNL1        0.0000
     22 C         143.2779  143.8562  164.2491 C.3     1  UNL1        0.0001
     23 C         142.1022  144.6850  163.8238 C.3     1  UNL1        0.0017
     24 C         137.8961  140.9590  159.2496 C.1     1  UNL1        0.1401
     25 N         137.6567  140.3784  157.8873 N.1     1  UNL1       -0.1876
     26 O         138.1527  140.3788  164.4068 O.3     1  UNL1       -0.4600
     27 C         138.8088  139.0300  164.4263 C.3     1  UNL1        0.2071
     28 C         140.1287  138.8281  163.7427 C.3     1  UNL1        0.0466
     29 C         141.3458  139.5552  164.2323 C.3     1  UNL1        0.0211
     30 C         142.6656  139.3533  163.5487 C.3     1  UNL1        0.0723
     31 N         142.7682  138.4243  162.3754 N.3     1  UNL1       -0.2715
     32 C         144.0881  138.2224  161.6918 C.3     1  UNL1        0.0896
     33 C         141.5510  137.6973  161.8858 C.3     1  UNL1        0.0723
     34 C         140.2312  137.8992  162.5694 C.3     1  UNL1        0.0211
@<TRIPOS>BOND
     1     7     8    1
     2     8     9   am
     3     9    10    2
     4     9     1    1
     5     1     2   ar
     6     2    12    1
     7    12    14    1
     8    14    15    1
     9    15    16    1
    10    16    17    1
    11    17    18    1
    12    18    19    1
    13    19    20    1
    14    20    21    1
    15    18    22    1
    16    22    23    1
    17     2     3   ar
    18     3     4   ar
    19     4    24    1
    20    24    25    3
    21     4     5   ar
    22     5     6   ar
    23     6    26    1
    24    26    27    1
    25    27    28    1
    26    28    29    1
    27    29    30    1
    28    30    31    1
    29    31    32    1
    30    31    33    1
    31    33    34    1
    32     6     1   ar
    33    34    28    1
    34    23    15    1
    35    21    18    1
    36     8    11    1
    37    12    13    1
@<TRIPOS>MOLECULE
*****
 34 37 0 0 0
SMALL
GASTEIGER

@<TRIPOS>ATOM
      1 C         142.9787  138.6979  162.7578 C.ar    1  UNL1        0.1377
      2 C         144.0357  139.4839  163.4754 C.ar    1  UNL1        0.1397
      3 N         144.0141  139.5778  164.9722 N.ar    1  UNL1       -0.2027
      4 C         142.9355  138.8856  165.7516 C.ar    1  UNL1        0.2367
      5 N         141.8785  138.0996  165.0341 N.ar    1  UNL1       -0.1828
      6 C         141.9001  138.0057  163.5372 C.ar    1  UNL1        0.2339
      7 C         141.7342  138.4309  158.9988 C.3     1  UNL1        0.1109
      8 N         141.7126  138.5248  160.4957 N.am    1  UNL1       -0.2990
      9 C         143.0003  138.6040  161.2609 C.2     1  UNL1        0.2532
     10 O         144.3097  138.5894  160.5292 O.2     1  UNL1       -0.2699
     11 H         140.8532  138.5344  160.9759 H       1  UNL1        0.1498
     12 N         145.1144  140.1761  162.6960 N.pl3   1  UNL1       -0.3178
     13 H         145.6801  139.6624  162.0753 H       1  UNL1        0.1482
     14 C         145.3310  141.6510  162.8623 C.3     1  UNL1        0.0881
     15 C         144.1784  142.5996  162.7154 C.3     1  UNL1        0.0196
     16 C         143.8347  143.5408  163.8316 C.3     1  UNL1        0.0017
     17 C         142.6821  144.4894  163.6848 C.3     1  UNL1        0.0001
     18 C         141.8731  144.4969  162.4217 C.3     1  UNL1        0.0000
     19 C         141.2480  145.5489  163.2892 C.3     1  UNL1        0.0000
     20 C         140.2430  145.8385  162.2139 C.3     1  UNL1        0.0000
     21 C         140.8681  144.7865  161.3464 C.3     1  UNL1        0.0000
     22 C         142.2168  143.5557  161.3054 C.3     1  UNL1        0.0001
     23 C         143.3694  142.6071  161.4523 C.3     1  UNL1        0.0017
     24 C         142.9138  138.9794  167.2485 C.1     1  UNL1        0.1401
     25 N         142.8922  139.0733  168.7454 N.1     1  UNL1       -0.1876
     26 O         140.8431  137.2197  162.8197 O.3     1  UNL1       -0.4600
     27 C         139.3960  137.5732  162.9961 C.3     1  UNL1        0.2071
     28 C         138.9833  139.0111  163.1065 C.3     1  UNL1        0.0466
     29 C         138.9672  139.8826  161.8858 C.3     1  UNL1        0.0211
     30 C         138.5545  141.3205  161.9963 C.3     1  UNL1        0.0723
     31 N         138.1580  141.8868  163.3275 N.3     1  UNL1       -0.2715
     32 C         137.7453  143.3247  163.4379 C.3     1  UNL1        0.0896
     33 C         138.1741  141.0153  164.5482 C.3     1  UNL1        0.0723
     34 C         138.5868  139.5775  164.4377 C.3     1  UNL1        0.0211
@<TRIPOS>BOND
     1     7     8    1
     2     8     9   am
     3     9    10    2
     4     9     1    1
     5     1     2   ar
     6     2    12    1
     7    12    14    1
     8    14    15    1
     9    15    16    1
    10    16    17    1
    11    17    18    1
    12    18    19    1
    13    19    20    1
    14    20    21    1
    15    18    22    1
    16    22    23    1
    17     2     3   ar
    18     3     4   ar
    19     4    24    1
    20    24    25    3
    21     4     5   ar
    22     5     6   ar
    23     6    26    1
    24    26    27    1
    25    27    28    1
    26    28    29    1
    27    29    30    1
    28    30    31    1
    29    31    32    1
    30    31    33    1
    31    33    34    1
    32     6     1   ar
    33    34    28    1
    34    23    15    1
    35    21    18    1
    36     8    11    1
    37    12    13    1
@<TRIPOS>MOLECULE
*****
 34 37 0 0 0
SMALL
GASTEIGER

@<TRIPOS>ATOM
      1 C         140.6801  143.4777  161.5198 C.ar    1  UNL1        0.1377
      2 C         139.2015  143.7129  161.4274 C.ar    1  UNL1        0.1397
      3 N         138.3793  142.9396  160.4395 N.ar    1  UNL1       -0.2027
      4 C         139.0357  141.9311  159.5439 C.ar    1  UNL1        0.2367
      5 N         140.5142  141.6959  159.6363 N.ar    1  UNL1       -0.1828
      6 C         141.3365  142.4692  160.6242 C.ar    1  UNL1        0.2339
      7 C         143.4641  144.3578  164.2077 C.3     1  UNL1        0.1109
      8 N         142.6419  143.5845  163.2198 N.am    1  UNL1       -0.2990
      9 C         141.5023  144.2510  162.5077 C.2     1  UNL1        0.2532
     10 O         141.1850  145.6909  162.7835 O.2     1  UNL1       -0.2699
     11 H         142.8502  142.6394  163.0389 H       1  UNL1        0.1498
     12 N         138.5451  144.7214  162.3230 N.pl3   1  UNL1       -0.3178
     13 H         138.5892  145.6795  162.1008 H       1  UNL1        0.1482
     14 C         137.8217  144.2702  163.5571 C.3     1  UNL1        0.0881
     15 C         138.4774  143.3058  164.5004 C.3     1  UNL1        0.0196
     16 C         139.5236  143.7895  165.4604 C.3     1  UNL1        0.0017
     17 C         140.1793  142.8250  166.4037 C.3     1  UNL1        0.0001
     18 C         139.7888  141.3769  166.3871 C.3     1  UNL1        0.0000
     19 C         140.8390  141.4836  167.4529 C.3     1  UNL1        0.0000
     20 C         140.7162  140.0129  167.7212 C.3     1  UNL1        0.0000
     21 C         139.6660  139.9061  166.6555 C.3     1  UNL1        0.0000
     22 C         138.7427  140.8931  165.4272 C.3     1  UNL1        0.0001
     23 C         138.0870  141.8576  164.4838 C.3     1  UNL1        0.0017
     24 C         138.2135  141.1578  158.5560 C.1     1  UNL1        0.1401
     25 N         137.3913  140.3844  157.5681 N.1     1  UNL1       -0.1876
     26 O         142.8150  142.2340  160.7165 O.3     1  UNL1       -0.4600
     27 C         143.3447  140.8383  160.8635 C.3     1  UNL1        0.2071
     28 C         143.4270  140.2066  162.2216 C.3     1  UNL1        0.0466
     29 C         144.7199  140.2285  162.9818 C.3     1  UNL1        0.0211
     30 C         144.8021  139.5967  164.3398 C.3     1  UNL1        0.0723
     31 N         143.5915  138.9431  164.9375 N.3     1  UNL1       -0.2715
     32 C         143.6738  138.3113  166.2955 C.3     1  UNL1        0.0896
     33 C         142.2987  138.9212  164.1772 C.3     1  UNL1        0.0723
     34 C         142.2164  139.5530  162.8193 C.3     1  UNL1        0.0211
@<TRIPOS>BOND
     1     7     8    1
     2     8     9   am
     3     9    10    2
     4     9     1    1
     5     1     2   ar
     6     2    12    1
     7    12    14    1
     8    14    15    1
     9    15    16    1
    10    16    17    1
    11    17    18    1
    12    18    19    1
    13    19    20    1
    14    20    21    1
    15    18    22    1
    16    22    23    1
    17     2     3   ar
    18     3     4   ar
    19     4    24    1
    20    24    25    3
    21     4     5   ar
    22     5     6   ar
    23     6    26    1
    24    26    27    1
    25    27    28    1
    26    28    29    1
    27    29    30    1
    28    30    31    1
    29    31    32    1
    30    31    33    1
    31    33    34    1
    32     6     1   ar
    33    34    28    1
    34    23    15    1
    35    21    18    1
    36     8    11    1
    37    12    13    1
@<TRIPOS>MOLECULE
*****
 34 37 0 0 0
SMALL
GASTEIGER

@<TRIPOS>ATOM
      1 C         140.3557  138.5979  164.0121 C.ar    1  UNL1        0.1377
      2 C         141.8023  138.2067  163.9472 C.ar    1  UNL1        0.1397
      3 N         142.4597  137.9825  162.6178 N.ar    1  UNL1       -0.2027
      4 C         141.6706  138.1497  161.3531 C.ar    1  UNL1        0.2367
      5 N         140.2240  138.5409  161.4180 N.ar    1  UNL1       -0.1828
      6 C         139.5665  138.7651  162.7475 C.ar    1  UNL1        0.2339
      7 C         137.7038  138.4305  166.9599 C.3     1  UNL1        0.1109
      8 N         138.3612  138.2064  165.6304 N.am    1  UNL1       -0.2990
      9 C         139.6982  138.8221  165.3416 C.2     1  UNL1        0.2532
     10 O         140.3778  139.6618  166.3823 O.2     1  UNL1       -0.2699
     11 H         137.9151  137.6553  164.9474 H       1  UNL1        0.1498
     12 N         142.5915  138.0395  165.2118 N.pl3   1  UNL1       -0.3178
     13 H         142.3264  137.3581  165.8711 H       1  UNL1        0.1482
     14 C         143.7845  138.9106  165.4721 C.3     1  UNL1        0.0881
     15 C         143.8153  140.3162  164.9491 C.3     1  UNL1        0.0196
     16 C         143.1335  141.4145  165.7097 C.3     1  UNL1        0.0017
     17 C         143.1643  142.8201  165.1867 C.3     1  UNL1        0.0001
     18 C         143.8769  143.1272  163.9030 C.3     1  UNL1        0.0000
     19 C         143.3294  144.4442  164.3678 C.3     1  UNL1        0.0000
     20 C         143.9204  145.1150  163.1634 C.3     1  UNL1        0.0000
     21 C         144.4680  143.7981  162.6986 C.3     1  UNL1        0.0000
     22 C         144.5587  142.0288  163.1424 C.3     1  UNL1        0.0001
     23 C         144.5279  140.6233  163.6654 C.3     1  UNL1        0.0017
     24 C         142.3280  137.9256  160.0237 C.1     1  UNL1        0.1401
     25 N         142.9854  137.7014  158.6941 N.1     1  UNL1       -0.1876
     26 O         138.1199  139.1563  162.8123 O.3     1  UNL1       -0.4600
     27 C         137.7392  140.5995  162.9620 C.3     1  UNL1        0.2071
     28 C         138.5841  141.6672  162.3324 C.3     1  UNL1        0.0466
     29 C         139.5549  142.4463  163.1694 C.3     1  UNL1        0.0211
     30 C         140.3996  143.5139  162.5397 C.3     1  UNL1        0.0723
     31 N         140.2737  143.8024  161.0732 N.3     1  UNL1       -0.2715
     32 C         141.1185  144.8701  160.4435 C.3     1  UNL1        0.0896
     33 C         139.3029  143.0233  160.2362 C.3     1  UNL1        0.0723
     34 C         138.4581  141.9557  160.8658 C.3     1  UNL1        0.0211
@<TRIPOS>BOND
     1     7     8    1
     2     8     9   am
     3     9    10    2
     4     9     1    1
     5     1     2   ar
     6     2    12    1
     7    12    14    1
     8    14    15    1
     9    15    16    1
    10    16    17    1
    11    17    18    1
    12    18    19    1
    13    19    20    1
    14    20    21    1
    15    18    22    1
    16    22    23    1
    17     2     3   ar
    18     3     4   ar
    19     4    24    1
    20    24    25    3
    21     4     5   ar
    22     5     6   ar
    23     6    26    1
    24    26    27    1
    25    27    28    1
    26    28    29    1
    27    29    30    1
    28    30    31    1
    29    31    32    1
    30    31    33    1
    31    33    34    1
    32     6     1   ar
    33    34    28    1
    34    23    15    1
    35    21    18    1
    36     8    11    1
    37    12    13    1
