@<TRIPOS>MOLECULE
*****
 43 46 0 0 0
SMALL
GASTEIGER

@<TRIPOS>ATOM
      1 C         141.7994  140.9401  162.6213 C.3     1  UNL1        0.0798
      2 C         141.6113  140.7332  164.0951 C.ar    1  UNL1        0.0374
      3 C         141.2826  141.8988  164.9801 C.ar    1  UNL1        0.0023
      4 C         141.0946  141.6920  166.4538 C.ar    1  UNL1        0.0183
      5 C         140.7659  142.8576  167.3389 C.ar    1  UNL1        0.0118
      6 C         140.5779  142.6507  168.8127 C.ar    1  UNL1        0.0685
      7 C         140.7185  141.2782  169.4013 C.ar    1  UNL1        0.0118
      8 C         141.0473  140.1126  168.5162 C.ar    1  UNL1        0.0199
      9 C         141.2353  140.3195  167.0425 C.ar    1  UNL1        0.0844
     10 N         141.5640  139.1539  166.1575 N.ar    1  UNL1       -0.2119
     11 C         141.7520  139.3608  164.6837 C.ar    1  UNL1        0.2211
     12 C         140.2491  143.8162  169.6977 C.1     1  UNL1        0.1004
     13 N         139.9204  144.9818  170.5828 N.1     1  UNL1       -0.1908
     14 O         142.0807  138.1952  163.7986 O.3     1  UNL1       -0.4563
     15 C         141.0795  137.0952  163.6043 C.3     1  UNL1        0.2542
     16 C         141.0102  140.1222  161.6424 C.ar    1  UNL1        0.0115
     17 C         141.7162  139.3644  160.5574 C.ar    1  UNL1       -0.0017
     18 C         140.9270  138.5464  159.5784 C.ar    1  UNL1       -0.0005
     19 C         139.4320  138.4863  159.6846 C.ar    1  UNL1       -0.0021
     20 C         138.7261  139.2442  160.7697 C.ar    1  UNL1        0.0053
     21 C         137.2311  139.1842  160.8758 C.3     1  UNL1        0.0334
     22 C         139.5152  140.0622  161.7486 C.ar    1  UNL1        0.1325
     23 F         138.8093  140.8200  162.8336 F       1  UNL1       -0.2048
     24 C         142.7765  141.9650  162.1265 C.3     1  UNL1        0.1162
     25 O         143.8951  141.2203  162.7930 O.3     1  UNL1       -0.3820
     26 H         144.7320  141.6846  162.6350 H       1  UNL1        0.2107
     27 C         139.4846  144.1238  161.6237 C.ar    1  UNL1        0.2271
     28 C         140.6032  143.3791  162.2902 C.ar    1  UNL1        0.0559
     29 C         141.6580  142.7097  161.4600 C.ar    1  UNL1        0.0117
     30 C         141.5942  142.7851  159.9633 C.ar    1  UNL1        0.0559
     31 C         140.4757  143.5298  159.2968 C.ar    1  UNL1        0.2271
     32 N         139.4209  144.1992  160.1270 N.ar    1  UNL1       -0.1767
     33 O         138.4298  144.7932  162.4541 O.3     1  UNL1       -0.4602
     34 C         138.7266  144.8565  165.0343 C.3     1  UNL1        0.0512
     35 C         138.0934  144.2569  163.8139 C.3     1  UNL1        0.2072
     36 O         140.4119  143.6051  157.8000 O.3     1  UNL1       -0.4602
     37 C         140.3193  142.3467  156.9890 C.3     1  UNL1        0.2072
     38 C         139.2965  141.3053  157.3346 C.3     1  UNL1        0.0512
     39 C         143.7537  142.9898  161.6317 C.3     1  UNL1        0.0491
     40 C         144.6163  143.7356  162.6062 C.3     1  UNL1        0.0750
     41 N         144.0441  144.1977  163.9136 N.3     1  UNL1       -0.2702
     42 C         142.9950  145.2695  163.9361 C.3     1  UNL1        0.0897
     43 C         144.5209  143.5879  165.1983 C.3     1  UNL1        0.0897
@<TRIPOS>BOND
     1    34    35    1
     2    35    33    1
     3    33    27    1
     4    27    28   ar
     5    28    29   ar
     6    29    24    1
     7    24    25    1
     8    24    39    1
     9    39    40    1
    10    40    41    1
    11    41    42    1
    12    41    43    1
    13    24     1    1
    14     1     2    1
    15     2     3   ar
    16     3     4   ar
    17     4     5   ar
    18     5     6   ar
    19     6    12    1
    20    12    13    3
    21     6     7   ar
    22     7     8   ar
    23     8     9   ar
    24     9    10   ar
    25    10    11   ar
    26    11    14    1
    27    14    15    1
    28     1    16    1
    29    16    17   ar
    30    17    18   ar
    31    18    19   ar
    32    19    20   ar
    33    20    21    1
    34    20    22   ar
    35    22    23    1
    36    29    30   ar
    37    30    31   ar
    38    31    36    1
    39    36    37    1
    40    37    38    1
    41    31    32   ar
    42    32    27   ar
    43    11     2   ar
    44    22    16   ar
    45     9     4   ar
    46    25    26    1
@<TRIPOS>MOLECULE
*****
 43 46 0 0 0
SMALL
GASTEIGER

@<TRIPOS>ATOM
      1 C         141.7839  140.9074  162.5267 C.3     1  UNL1        0.0798
      2 C         141.5887  140.6873  163.9977 C.ar    1  UNL1        0.0374
      3 C         141.2680  141.8469  164.8934 C.ar    1  UNL1        0.0023
      4 C         141.0728  141.6270  166.3643 C.ar    1  UNL1        0.0183
      5 C         140.7521  142.7866  167.2600 C.ar    1  UNL1        0.0118
      6 C         140.5569  142.5665  168.7310 C.ar    1  UNL1        0.0685
      7 C         140.6826  141.1869  169.3061 C.ar    1  UNL1        0.0118
      8 C         141.0033  140.0273  168.4103 C.ar    1  UNL1        0.0199
      9 C         141.1985  140.2473  166.9395 C.ar    1  UNL1        0.0844
     10 N         141.5192  139.0876  166.0437 N.ar    1  UNL1       -0.2119
     11 C         141.7144  139.3077  164.5728 C.ar    1  UNL1        0.2211
     12 C         140.2362  143.7262  169.6267 C.1     1  UNL1        0.1004
     13 N         139.9154  144.8858  170.5225 N.1     1  UNL1       -0.1908
     14 O         142.0351  138.1481  163.6770 O.3     1  UNL1       -0.4563
     15 C         141.0158  137.0712  163.4502 C.3     1  UNL1        0.2542
     16 C         140.9389  140.1601  161.5380 C.ar    1  UNL1        0.0115
     17 C         141.5898  139.3342  160.4683 C.ar    1  UNL1       -0.0017
     18 C         140.7449  138.5869  159.4795 C.ar    1  UNL1       -0.0005
     19 C         139.2491  138.6654  159.5605 C.ar    1  UNL1       -0.0021
     20 C         138.5983  139.4913  160.6303 C.ar    1  UNL1        0.0053
     21 C         137.1025  139.5698  160.7113 C.3     1  UNL1        0.0334
     22 C         139.4432  140.2386  161.6190 C.ar    1  UNL1        0.1325
     23 F         138.7924  141.0644  162.6887 F       1  UNL1       -0.2048
     24 C         142.8239  141.8747  162.0446 C.3     1  UNL1        0.1162
     25 O         143.8879  141.0762  162.7377 O.3     1  UNL1       -0.3820
     26 H         144.7513  141.4939  162.5932 H       1  UNL1        0.2107
     27 C         140.6636  143.5372  159.1603 C.ar    1  UNL1        0.2271
     28 C         141.7276  142.7387  159.8534 C.ar    1  UNL1        0.0559
     29 C         141.7600  142.6732  161.3515 C.ar    1  UNL1        0.0117
     30 C         140.7283  143.4063  162.1567 C.ar    1  UNL1        0.0559
     31 C         139.6643  144.2048  161.4636 C.ar    1  UNL1        0.2271
     32 N         139.6320  144.2703  159.9654 N.ar    1  UNL1       -0.1767
     33 O         140.6313  143.6026  157.6620 O.3     1  UNL1       -0.4602
     34 C         141.8382  145.8998  157.5352 C.3     1  UNL1        0.0512
     35 C         140.8690  144.9083  156.9630 C.3     1  UNL1        0.2072
     36 O         138.6327  144.9380  162.2688 O.3     1  UNL1       -0.4602
     37 C         138.0964  144.3311  163.5313 C.3     1  UNL1        0.2072
     38 C         138.6810  144.7189  164.8571 C.3     1  UNL1        0.0512
     39 C         143.8640  142.8421  161.5625 C.3     1  UNL1        0.0491
     40 C         144.7229  143.5741  162.5506 C.3     1  UNL1        0.0750
     41 N         144.1266  144.0859  163.8283 N.3     1  UNL1       -0.2702
     42 C         143.1309  145.2072  163.7950 C.3     1  UNL1        0.0897
     43 C         144.5259  143.4763  165.1394 C.3     1  UNL1        0.0897
@<TRIPOS>BOND
     1    34    35    1
     2    35    33    1
     3    33    27    1
     4    27    28   ar
     5    28    29   ar
     6    29    24    1
     7    24    25    1
     8    24    39    1
     9    39    40    1
    10    40    41    1
    11    41    42    1
    12    41    43    1
    13    24     1    1
    14     1     2    1
    15     2     3   ar
    16     3     4   ar
    17     4     5   ar
    18     5     6   ar
    19     6    12    1
    20    12    13    3
    21     6     7   ar
    22     7     8   ar
    23     8     9   ar
    24     9    10   ar
    25    10    11   ar
    26    11    14    1
    27    14    15    1
    28     1    16    1
    29    16    17   ar
    30    17    18   ar
    31    18    19   ar
    32    19    20   ar
    33    20    21    1
    34    20    22   ar
    35    22    23    1
    36    29    30   ar
    37    30    31   ar
    38    31    36    1
    39    36    37    1
    40    37    38    1
    41    31    32   ar
    42    32    27   ar
    43    11     2   ar
    44    22    16   ar
    45     9     4   ar
    46    25    26    1
@<TRIPOS>MOLECULE
*****
 43 46 0 0 0
SMALL
GASTEIGER

@<TRIPOS>ATOM
      1 C         141.5314  142.0894  162.6493 C.3     1  UNL1        0.0798
      2 C         141.9669  142.1245  164.0843 C.ar    1  UNL1        0.0374
      3 C         141.1239  141.4728  165.1401 C.ar    1  UNL1        0.0023
      4 C         141.5593  141.5078  166.5750 C.ar    1  UNL1        0.0183
      5 C         140.7163  140.8561  167.6308 C.ar    1  UNL1        0.0118
      6 C         141.1518  140.8912  169.0658 C.ar    1  UNL1        0.0685
      7 C         142.4303  141.5779  169.4450 C.ar    1  UNL1        0.0118
      8 C         143.2733  142.2296  168.3892 C.ar    1  UNL1        0.0199
      9 C         142.8379  142.1946  166.9543 C.ar    1  UNL1        0.0844
     10 N         143.6809  142.8463  165.8986 N.ar    1  UNL1       -0.2119
     11 C         143.2454  142.8112  164.4635 C.ar    1  UNL1        0.2211
     12 C         140.3088  140.2395  170.1215 C.1     1  UNL1        0.1004
     13 N         139.4658  139.5878  171.1773 N.1     1  UNL1       -0.1908
     14 O         144.0884  143.4629  163.4078 O.3     1  UNL1       -0.4563
     15 C         143.9888  144.9415  163.1754 C.3     1  UNL1        0.2542
     16 C         142.3724  141.3836  161.6273 C.ar    1  UNL1        0.0115
     17 C         142.8171  142.1087  160.3919 C.ar    1  UNL1       -0.0017
     18 C         143.6582  141.4029  159.3698 C.ar    1  UNL1       -0.0005
     19 C         144.0545  139.9721  159.5833 C.ar    1  UNL1       -0.0021
     20 C         143.6098  139.2470  160.8189 C.ar    1  UNL1        0.0053
     21 C         144.0061  137.8161  161.0324 C.3     1  UNL1        0.0334
     22 C         142.7687  139.9528  161.8408 C.ar    1  UNL1        0.1325
     23 F         142.3240  139.2277  163.0763 F       1  UNL1       -0.2048
     24 C         140.2548  142.7601  162.2364 C.3     1  UNL1        0.1162
     25 O         140.8357  144.0929  162.6055 O.3     1  UNL1       -0.3820
     26 H         140.1827  144.7892  162.4333 H       1  UNL1        0.2107
     27 C         138.8092  139.7721  160.0611 C.ar    1  UNL1        0.2271
     28 C         139.3901  141.1049  160.4302 C.ar    1  UNL1        0.0559
     29 C         139.6739  141.4273  161.8673 C.ar    1  UNL1        0.0117
     30 C         139.3768  140.4170  162.9354 C.ar    1  UNL1        0.0559
     31 C         138.7959  139.0842  162.5664 C.ar    1  UNL1        0.2271
     32 N         138.5121  138.7617  161.1292 N.ar    1  UNL1       -0.1767
     33 O         138.5254  139.4497  158.6239 O.3     1  UNL1       -0.4602
     34 C         140.9005  138.4717  158.2336 C.3     1  UNL1        0.0512
     35 C         139.6525  139.1064  157.6956 C.3     1  UNL1        0.2072
     36 O         138.4988  138.0738  163.6345 O.3     1  UNL1       -0.4602
     37 C         139.0500  138.2600  165.0171 C.3     1  UNL1        0.2072
     38 C         138.1259  138.5691  166.1575 C.3     1  UNL1        0.0512
     39 C         138.9783  143.4309  161.8235 C.3     1  UNL1        0.0491
     40 C         138.2627  144.3362  162.7817 C.3     1  UNL1        0.0750
     41 N         138.1832  143.9768  164.2359 N.3     1  UNL1       -0.2702
     42 C         137.5369  142.6902  164.6563 C.3     1  UNL1        0.0897
     43 C         138.7501  144.9041  165.2697 C.3     1  UNL1        0.0897
@<TRIPOS>BOND
     1    34    35    1
     2    35    33    1
     3    33    27    1
     4    27    28   ar
     5    28    29   ar
     6    29    24    1
     7    24    25    1
     8    24    39    1
     9    39    40    1
    10    40    41    1
    11    41    42    1
    12    41    43    1
    13    24     1    1
    14     1     2    1
    15     2     3   ar
    16     3     4   ar
    17     4     5   ar
    18     5     6   ar
    19     6    12    1
    20    12    13    3
    21     6     7   ar
    22     7     8   ar
    23     8     9   ar
    24     9    10   ar
    25    10    11   ar
    26    11    14    1
    27    14    15    1
    28     1    16    1
    29    16    17   ar
    30    17    18   ar
    31    18    19   ar
    32    19    20   ar
    33    20    21    1
    34    20    22   ar
    35    22    23    1
    36    29    30   ar
    37    30    31   ar
    38    31    36    1
    39    36    37    1
    40    37    38    1
    41    31    32   ar
    42    32    27   ar
    43    11     2   ar
    44    22    16   ar
    45     9     4   ar
    46    25    26    1
@<TRIPOS>MOLECULE
*****
 43 46 0 0 0
SMALL
GASTEIGER

@<TRIPOS>ATOM
      1 C         140.0944  141.1337  165.0153 C.3     1  UNL1        0.0798
      2 C         140.8581  140.2774  164.0490 C.ar    1  UNL1        0.0374
      3 C         140.4789  140.2630  162.5978 C.ar    1  UNL1        0.0023
      4 C         141.2425  139.4067  161.6315 C.ar    1  UNL1        0.0183
      5 C         140.8633  139.3923  160.1803 C.ar    1  UNL1        0.0118
      6 C         141.6270  138.5360  159.2141 C.ar    1  UNL1        0.0685
      7 C         142.7699  137.6942  159.6990 C.ar    1  UNL1        0.0118
      8 C         143.1491  137.7086  161.1502 C.ar    1  UNL1        0.0199
      9 C         142.3854  138.5649  162.1165 C.ar    1  UNL1        0.0844
     10 N         142.7647  138.5793  163.5677 N.ar    1  UNL1       -0.2119
     11 C         142.0010  139.4356  164.5339 C.ar    1  UNL1        0.2211
     12 C         141.2478  138.5216  157.7629 C.1     1  UNL1        0.1004
     13 N         140.8686  138.5072  156.3117 N.1     1  UNL1       -0.1908
     14 O         142.3802  139.4500  165.9851 O.3     1  UNL1       -0.4563
     15 C         143.4412  138.5188  166.4924 C.3     1  UNL1        0.2542
     16 C         139.5091  140.5260  166.2555 C.ar    1  UNL1        0.0115
     17 C         139.8845  141.0653  167.6039 C.ar    1  UNL1       -0.0017
     18 C         139.2992  140.4576  168.8442 C.ar    1  UNL1       -0.0005
     19 C         138.3385  139.3107  168.7360 C.ar    1  UNL1       -0.0021
     20 C         137.9631  138.7715  167.3875 C.ar    1  UNL1        0.0053
     21 C         137.0025  137.6246  167.2792 C.3     1  UNL1        0.0334
     22 C         138.5484  139.3791  166.1473 C.ar    1  UNL1        0.1325
     23 F         138.1731  138.8399  164.7988 F       1  UNL1       -0.2048
     24 C         139.9160  142.5976  164.7413 C.3     1  UNL1        0.1162
     25 O         138.4477  142.3786  164.5268 O.3     1  UNL1       -0.3820
     26 H         138.0225  143.2239  164.3135 H       1  UNL1        0.2107
     27 C         143.4367  142.9099  166.5460 C.ar    1  UNL1        0.2271
     28 C         141.9684  142.6908  166.3316 C.ar    1  UNL1        0.0559
     29 C         141.3844  142.8166  164.9557 C.ar    1  UNL1        0.0117
     30 C         142.2687  143.1615  163.7943 C.ar    1  UNL1        0.0559
     31 C         143.7371  143.3805  164.0087 C.ar    1  UNL1        0.2271
     32 N         144.3211  143.2547  165.3846 N.ar    1  UNL1       -0.1767
     33 O         144.0207  142.7841  167.9220 O.3     1  UNL1       -0.4602
     34 C         143.0843  140.9610  169.5187 C.3     1  UNL1        0.0512
     35 C         143.1452  142.3927  169.0754 C.3     1  UNL1        0.2072
     36 O         144.6214  143.7254  162.8472 O.3     1  UNL1       -0.4602
     37 C         144.8070  142.7436  161.7284 C.3     1  UNL1        0.2072
     38 C         144.7689  141.2706  162.0092 C.3     1  UNL1        0.0512
     39 C         139.7377  144.0615  164.4672 C.3     1  UNL1        0.0491
     40 C         138.7944  144.5139  163.3923 C.3     1  UNL1        0.0750
     41 N         139.2334  144.5080  161.9580 N.3     1  UNL1       -0.2702
     42 C         139.0029  143.2937  161.1081 C.3     1  UNL1        0.0897
     43 C         139.9028  145.7164  161.3736 C.3     1  UNL1        0.0897
@<TRIPOS>BOND
     1    34    35    1
     2    35    33    1
     3    33    27    1
     4    27    28   ar
     5    28    29   ar
     6    29    24    1
     7    24    25    1
     8    24    39    1
     9    39    40    1
    10    40    41    1
    11    41    42    1
    12    41    43    1
    13    24     1    1
    14     1     2    1
    15     2     3   ar
    16     3     4   ar
    17     4     5   ar
    18     5     6   ar
    19     6    12    1
    20    12    13    3
    21     6     7   ar
    22     7     8   ar
    23     8     9   ar
    24     9    10   ar
    25    10    11   ar
    26    11    14    1
    27    14    15    1
    28     1    16    1
    29    16    17   ar
    30    17    18   ar
    31    18    19   ar
    32    19    20   ar
    33    20    21    1
    34    20    22   ar
    35    22    23    1
    36    29    30   ar
    37    30    31   ar
    38    31    36    1
    39    36    37    1
    40    37    38    1
    41    31    32   ar
    42    32    27   ar
    43    11     2   ar
    44    22    16   ar
    45     9     4   ar
    46    25    26    1
@<TRIPOS>MOLECULE
*****
 43 46 0 0 0
SMALL
GASTEIGER

@<TRIPOS>ATOM
      1 C         141.5277  142.1443  162.5685 C.3     1  UNL1        0.0798
      2 C         141.8048  141.9359  164.0280 C.ar    1  UNL1        0.0374
      3 C         140.7025  141.4959  164.9453 C.ar    1  UNL1        0.0023
      4 C         140.9796  141.2874  166.4046 C.ar    1  UNL1        0.0183
      5 C         139.8774  140.8474  167.3219 C.ar    1  UNL1        0.0118
      6 C         140.1545  140.6390  168.7813 C.ar    1  UNL1        0.0685
      7 C         141.5337  140.8706  169.3234 C.ar    1  UNL1        0.0118
      8 C         142.6360  141.3107  168.4061 C.ar    1  UNL1        0.0199
      9 C         142.3589  141.5191  166.9468 C.ar    1  UNL1        0.0844
     10 N         143.4612  141.9591  166.0295 N.ar    1  UNL1       -0.2119
     11 C         143.1841  142.1676  164.5700 C.ar    1  UNL1        0.2211
     12 C         139.0522  140.1989  169.6986 C.1     1  UNL1        0.1004
     13 N         137.9500  139.7589  170.6159 N.1     1  UNL1       -0.1908
     14 O         144.2863  142.6076  163.6527 O.3     1  UNL1       -0.4563
     15 C         145.5093  141.7550  163.4868 C.3     1  UNL1        0.2542
     16 C         142.3516  141.4292  161.5391 C.ar    1  UNL1        0.0115
     17 C         142.9976  142.2013  160.4271 C.ar    1  UNL1       -0.0017
     18 C         143.8216  141.4862  159.3976 C.ar    1  UNL1       -0.0005
     19 C         143.9994  139.9990  159.4802 C.ar    1  UNL1       -0.0021
     20 C         143.3533  139.2270  160.5923 C.ar    1  UNL1        0.0053
     21 C         143.5312  137.7399  160.6748 C.3     1  UNL1        0.0334
     22 C         142.5294  139.9421  161.6217 C.ar    1  UNL1        0.1325
     23 F         141.8834  139.1701  162.7337 F       1  UNL1       -0.2048
     24 C         140.4267  143.0679  162.1386 C.3     1  UNL1        0.1162
     25 O         141.1347  144.2168  162.7934 O.3     1  UNL1       -0.3820
     26 H         140.6160  145.0275  162.6725 H       1  UNL1        0.2107
     27 C         138.4867  139.6386  161.6627 C.ar    1  UNL1        0.2271
     28 C         139.1947  140.7875  162.3175 C.ar    1  UNL1        0.0559
     29 C         139.7186  141.9190  161.4838 C.ar    1  UNL1        0.0117
     30 C         139.5345  141.9016  159.9953 C.ar    1  UNL1        0.0559
     31 C         138.8265  140.7527  159.3405 C.ar    1  UNL1        0.2271
     32 N         138.3026  139.6212  160.1742 N.ar    1  UNL1       -0.1767
     33 O         137.9628  138.5070  162.4966 O.3     1  UNL1       -0.4602
     34 C         138.9693  137.9595  164.8283 C.3     1  UNL1        0.0512
     35 C         138.9015  137.7079  163.3511 C.3     1  UNL1        0.2072
     36 O         138.6424  140.7354  157.8519 O.3     1  UNL1       -0.4602
     37 C         139.5767  139.9391  156.9899 C.3     1  UNL1        0.2072
     38 C         140.8861  139.4620  157.5447 C.3     1  UNL1        0.0512
     39 C         139.3256  143.9914  161.7087 C.3     1  UNL1        0.0491
     40 C         138.5966  144.8151  162.7285 C.3     1  UNL1        0.0750
     41 N         138.3053  144.2442  164.0846 N.3     1  UNL1       -0.2702
     42 C         138.9232  144.8585  165.3056 C.3     1  UNL1        0.0897
     43 C         137.3961  143.0589  164.2198 C.3     1  UNL1        0.0897
@<TRIPOS>BOND
     1    34    35    1
     2    35    33    1
     3    33    27    1
     4    27    28   ar
     5    28    29   ar
     6    29    24    1
     7    24    25    1
     8    24    39    1
     9    39    40    1
    10    40    41    1
    11    41    42    1
    12    41    43    1
    13    24     1    1
    14     1     2    1
    15     2     3   ar
    16     3     4   ar
    17     4     5   ar
    18     5     6   ar
    19     6    12    1
    20    12    13    3
    21     6     7   ar
    22     7     8   ar
    23     8     9   ar
    24     9    10   ar
    25    10    11   ar
    26    11    14    1
    27    14    15    1
    28     1    16    1
    29    16    17   ar
    30    17    18   ar
    31    18    19   ar
    32    19    20   ar
    33    20    21    1
    34    20    22   ar
    35    22    23    1
    36    29    30   ar
    37    30    31   ar
    38    31    36    1
    39    36    37    1
    40    37    38    1
    41    31    32   ar
    42    32    27   ar
    43    11     2   ar
    44    22    16   ar
    45     9     4   ar
    46    25    26    1
@<TRIPOS>MOLECULE
*****
 43 46 0 0 0
SMALL
GASTEIGER

@<TRIPOS>ATOM
      1 C         140.0598  141.1103  164.9728 C.3     1  UNL1        0.0798
      2 C         140.8278  140.2456  164.0175 C.ar    1  UNL1        0.0374
      3 C         140.4774  140.2446  162.5590 C.ar    1  UNL1        0.0023
      4 C         141.2454  139.3800  161.6038 C.ar    1  UNL1        0.0183
      5 C         140.8950  139.3789  160.1453 C.ar    1  UNL1        0.0118
      6 C         141.6630  138.5142  159.1900 C.ar    1  UNL1        0.0685
      7 C         142.7814  137.6506  159.6932 C.ar    1  UNL1        0.0118
      8 C         143.1318  137.6516  161.1517 C.ar    1  UNL1        0.0199
      9 C         142.3638  138.5162  162.1070 C.ar    1  UNL1        0.0844
     10 N         142.7142  138.5173  163.5655 N.ar    1  UNL1       -0.2119
     11 C         141.9462  139.3820  164.5207 C.ar    1  UNL1        0.2211
     12 C         141.3126  138.5132  157.7315 C.1     1  UNL1        0.1004
     13 N         140.9622  138.5122  156.2730 N.1     1  UNL1       -0.1908
     14 O         142.2966  139.3830  165.9792 O.3     1  UNL1       -0.4563
     15 C         143.4342  138.5419  166.4779 C.3     1  UNL1        0.2542
     16 C         139.4945  140.5199  166.2305 C.ar    1  UNL1        0.0115
     17 C         139.8939  141.0756  167.5652 C.ar    1  UNL1       -0.0017
     18 C         139.3286  140.4852  168.8230 C.ar    1  UNL1       -0.0005
     19 C         138.3640  139.3391  168.7460 C.ar    1  UNL1       -0.0021
     20 C         137.9646  138.7834  167.4111 C.ar    1  UNL1        0.0053
     21 C         137.0000  137.6373  167.3340 C.3     1  UNL1        0.0334
     22 C         138.5299  139.3738  166.1534 C.ar    1  UNL1        0.1325
     23 F         138.1305  138.8181  164.8186 F       1  UNL1       -0.2048
     24 C         139.8570  142.5655  164.6703 C.3     1  UNL1        0.1162
     25 O         138.3892  142.3215  164.4807 O.3     1  UNL1       -0.3820
     26 H         137.9492  143.1561  164.2554 H       1  UNL1        0.2107
     27 C         143.6535  143.4011  163.8712 C.ar    1  UNL1        0.2271
     28 C         142.1856  143.1572  163.6817 C.ar    1  UNL1        0.0559
     29 C         141.3249  142.8094  164.8598 C.ar    1  UNL1        0.0117
     30 C         141.9320  142.7054  166.2275 C.ar    1  UNL1        0.0559
     31 C         143.3998  142.9493  166.4170 C.ar    1  UNL1        0.2271
     32 N         144.2606  143.2972  165.2389 N.ar    1  UNL1       -0.1767
     33 O         144.5142  143.7490  162.6930 O.3     1  UNL1       -0.4602
     34 C         144.7545  141.2466  162.0373 C.3     1  UNL1        0.0512
     35 C         144.8552  142.6992  161.6773 C.3     1  UNL1        0.2072
     36 O         144.0069  142.8454  167.7848 O.3     1  UNL1       -0.4602
     37 C         143.2816  142.1113  168.8734 C.3     1  UNL1        0.2072
     38 C         142.4929  142.8744  169.8959 C.3     1  UNL1        0.0512
     39 C         139.6543  144.0206  164.3678 C.3     1  UNL1        0.0491
     40 C         138.7079  144.4358  163.2807 C.3     1  UNL1        0.0750
     41 N         139.0100  144.0933  161.8519 N.3     1  UNL1       -0.2702
     42 C         138.2973  142.9531  161.1872 C.3     1  UNL1        0.0897
     43 C         140.0248  144.8909  161.0879 C.3     1  UNL1        0.0897
@<TRIPOS>BOND
     1    34    35    1
     2    35    33    1
     3    33    27    1
     4    27    28   ar
     5    28    29   ar
     6    29    24    1
     7    24    25    1
     8    24    39    1
     9    39    40    1
    10    40    41    1
    11    41    42    1
    12    41    43    1
    13    24     1    1
    14     1     2    1
    15     2     3   ar
    16     3     4   ar
    17     4     5   ar
    18     5     6   ar
    19     6    12    1
    20    12    13    3
    21     6     7   ar
    22     7     8   ar
    23     8     9   ar
    24     9    10   ar
    25    10    11   ar
    26    11    14    1
    27    14    15    1
    28     1    16    1
    29    16    17   ar
    30    17    18   ar
    31    18    19   ar
    32    19    20   ar
    33    20    21    1
    34    20    22   ar
    35    22    23    1
    36    29    30   ar
    37    30    31   ar
    38    31    36    1
    39    36    37    1
    40    37    38    1
    41    31    32   ar
    42    32    27   ar
    43    11     2   ar
    44    22    16   ar
    45     9     4   ar
    46    25    26    1
@<TRIPOS>MOLECULE
*****
 43 46 0 0 0
SMALL
GASTEIGER

@<TRIPOS>ATOM
      1 C         140.5478  140.7097  161.9130 C.3     1  UNL1        0.0798
      2 C         140.1255  140.3570  163.3085 C.ar    1  UNL1        0.0374
      3 C         140.5322  141.2302  164.4583 C.ar    1  UNL1        0.0023
      4 C         140.1099  140.8776  165.8538 C.ar    1  UNL1        0.0183
      5 C         140.5166  141.7508  167.0037 C.ar    1  UNL1        0.0118
      6 C         140.0944  141.3982  168.3992 C.ar    1  UNL1        0.0685
      7 C         139.2654  140.1724  168.6448 C.ar    1  UNL1        0.0118
      8 C         138.8587  139.2992  167.4949 C.ar    1  UNL1        0.0199
      9 C         139.2810  139.6518  166.0995 C.ar    1  UNL1        0.0844
     10 N         138.8743  138.7786  164.9496 N.ar    1  UNL1       -0.2119
     11 C         139.2966  139.1313  163.5541 C.ar    1  UNL1        0.2211
     12 C         140.5011  142.2713  169.5490 C.1     1  UNL1        0.1004
     13 N         140.9077  143.1445  170.6989 N.1     1  UNL1       -0.1908
     14 O         138.8899  138.2581  162.4042 O.3     1  UNL1       -0.4563
     15 C         137.6154  138.5379  161.6642 C.3     1  UNL1        0.2542
     16 C         141.2990  139.7121  161.0821 C.ar    1  UNL1        0.0115
     17 C         142.5384  139.0652  161.6255 C.ar    1  UNL1       -0.0017
     18 C         143.2898  138.0676  160.7946 C.ar    1  UNL1       -0.0005
     19 C         142.8017  137.7170  159.4202 C.ar    1  UNL1       -0.0021
     20 C         141.5622  138.3640  158.8768 C.ar    1  UNL1        0.0053
     21 C         141.0741  138.0134  157.5025 C.3     1  UNL1        0.0334
     22 C         140.8109  139.3615  159.7077 C.ar    1  UNL1        0.1325
     23 F         139.5715  140.0084  159.1643 F       1  UNL1       -0.2048
     24 C         140.2187  142.0599  161.3484 C.3     1  UNL1        0.1162
     25 O         138.7562  141.7770  161.5244 O.3     1  UNL1       -0.3820
     26 H         138.2403  142.5392  161.2181 H       1  UNL1        0.2107
     27 C         144.0387  142.7218  162.1964 C.ar    1  UNL1        0.2271
     28 C         142.5762  142.4389  162.3723 C.ar    1  UNL1        0.0559
     29 C         141.6812  142.3427  161.1725 C.ar    1  UNL1        0.0117
     30 C         142.2488  142.5294  159.7966 C.ar    1  UNL1        0.0559
     31 C         143.7114  142.8122  159.6207 C.ar    1  UNL1        0.2271
     32 N         144.6063  142.9084  160.8206 N.ar    1  UNL1       -0.1767
     33 O         144.9337  142.8180  163.3964 O.3     1  UNL1       -0.4602
     34 C         145.1432  140.2802  163.9118 C.3     1  UNL1        0.0512
     35 C         145.7670  141.6402  163.8068 C.3     1  UNL1        0.2072
     36 O         144.2789  142.9989  158.2448 O.3     1  UNL1       -0.4602
     37 C         144.0555  141.9530  157.1931 C.3     1  UNL1        0.2072
     38 C         144.3312  140.5107  157.4992 C.3     1  UNL1        0.0512
     39 C         139.8897  143.4101  160.7839 C.3     1  UNL1        0.0491
     40 C         139.8606  144.6115  161.6815 C.3     1  UNL1        0.0750
     41 N         139.2125  144.5237  163.0313 N.3     1  UNL1       -0.2702
     42 C         137.7326  144.3042  163.1399 C.3     1  UNL1        0.0897
     43 C         140.0441  144.6555  164.2727 C.3     1  UNL1        0.0897
@<TRIPOS>BOND
     1    34    35    1
     2    35    33    1
     3    33    27    1
     4    27    28   ar
     5    28    29   ar
     6    29    24    1
     7    24    25    1
     8    24    39    1
     9    39    40    1
    10    40    41    1
    11    41    42    1
    12    41    43    1
    13    24     1    1
    14     1     2    1
    15     2     3   ar
    16     3     4   ar
    17     4     5   ar
    18     5     6   ar
    19     6    12    1
    20    12    13    3
    21     6     7   ar
    22     7     8   ar
    23     8     9   ar
    24     9    10   ar
    25    10    11   ar
    26    11    14    1
    27    14    15    1
    28     1    16    1
    29    16    17   ar
    30    17    18   ar
    31    18    19   ar
    32    19    20   ar
    33    20    21    1
    34    20    22   ar
    35    22    23    1
    36    29    30   ar
    37    30    31   ar
    38    31    36    1
    39    36    37    1
    40    37    38    1
    41    31    32   ar
    42    32    27   ar
    43    11     2   ar
    44    22    16   ar
    45     9     4   ar
    46    25    26    1
@<TRIPOS>MOLECULE
*****
 43 46 0 0 0
SMALL
GASTEIGER

@<TRIPOS>ATOM
      1 C         140.6321  140.7759  161.9317 C.3     1  UNL1        0.0798
      2 C         140.3164  140.5206  163.3758 C.ar    1  UNL1        0.0374
      3 C         140.6373  141.5599  164.4087 C.ar    1  UNL1        0.0023
      4 C         140.3216  141.3047  165.8527 C.ar    1  UNL1        0.0183
      5 C         140.6425  142.3439  166.8856 C.ar    1  UNL1        0.0118
      6 C         140.3267  142.0886  168.3297 C.ar    1  UNL1        0.0685
      7 C         139.6901  140.7941  168.7407 C.ar    1  UNL1        0.0118
      8 C         139.3692  139.7549  167.7078 C.ar    1  UNL1        0.0199
      9 C         139.6849  140.0101  166.2638 C.ar    1  UNL1        0.0844
     10 N         139.3640  138.9709  165.2308 N.ar    1  UNL1       -0.2119
     11 C         139.6797  139.2262  163.7868 C.ar    1  UNL1        0.2211
     12 C         140.6477  143.1278  169.3626 C.1     1  UNL1        0.1004
     13 N         140.9686  144.1671  170.3956 N.1     1  UNL1       -0.1908
     14 O         139.3588  138.1869  162.7538 O.3     1  UNL1       -0.4563
     15 C         138.0360  138.2154  162.0471 C.3     1  UNL1        0.2542
     16 C         141.4092  139.7636  161.1436 C.ar    1  UNL1        0.0115
     17 C         142.6989  139.2214  161.6845 C.ar    1  UNL1       -0.0017
     18 C         143.4761  138.2090  160.8963 C.ar    1  UNL1       -0.0005
     19 C         142.9636  137.7389  159.5673 C.ar    1  UNL1       -0.0021
     20 C         141.6738  138.2812  159.0264 C.ar    1  UNL1        0.0053
     21 C         141.1613  137.8111  157.6974 C.3     1  UNL1        0.0334
     22 C         140.8967  139.2935  159.8145 C.ar    1  UNL1        0.1325
     23 F         139.6070  139.8358  159.2736 F       1  UNL1       -0.2048
     24 C         140.1706  142.0436  161.2759 C.3     1  UNL1        0.1162
     25 O         138.7434  141.6405  161.5008 O.3     1  UNL1       -0.3820
     26 H         138.1545  142.3264  161.1495 H       1  UNL1        0.2107
     27 C         143.6113  142.7949  159.4464 C.ar    1  UNL1        0.2271
     28 C         142.1842  142.3918  159.6714 C.ar    1  UNL1        0.0559
     29 C         141.5978  142.4467  161.0509 C.ar    1  UNL1        0.0117
     30 C         142.4387  142.9048  162.2055 C.ar    1  UNL1        0.0559
     31 C         143.8659  143.3079  161.9805 C.ar    1  UNL1        0.2271
     32 N         144.4522  143.2530  160.6010 N.ar    1  UNL1       -0.1767
     33 O         144.1977  142.7400  158.0668 O.3     1  UNL1       -0.4602
     34 C         143.9049  140.4226  156.9293 C.3     1  UNL1        0.0512
     35 C         144.7894  141.4607  157.5538 C.3     1  UNL1        0.2072
     36 O         144.7068  143.7660  163.1352 O.3     1  UNL1       -0.4602
     37 C         144.0696  144.0380  164.4656 C.3     1  UNL1        0.2072
     38 C         144.0588  142.9747  165.5234 C.3     1  UNL1        0.0512
     39 C         139.7092  143.3112  160.6200 C.3     1  UNL1        0.0491
     40 C         139.6478  144.5850  161.4098 C.3     1  UNL1        0.0750
     41 N         139.1220  144.5718  162.8146 N.3     1  UNL1       -0.2702
     42 C         140.0296  144.9155  163.9583 C.3     1  UNL1        0.0897
     43 C         137.6887  144.2151  163.0756 C.3     1  UNL1        0.0897
@<TRIPOS>BOND
     1    34    35    1
     2    35    33    1
     3    33    27    1
     4    27    28   ar
     5    28    29   ar
     6    29    24    1
     7    24    25    1
     8    24    39    1
     9    39    40    1
    10    40    41    1
    11    41    42    1
    12    41    43    1
    13    24     1    1
    14     1     2    1
    15     2     3   ar
    16     3     4   ar
    17     4     5   ar
    18     5     6   ar
    19     6    12    1
    20    12    13    3
    21     6     7   ar
    22     7     8   ar
    23     8     9   ar
    24     9    10   ar
    25    10    11   ar
    26    11    14    1
    27    14    15    1
    28     1    16    1
    29    16    17   ar
    30    17    18   ar
    31    18    19   ar
    32    19    20   ar
    33    20    21    1
    34    20    22   ar
    35    22    23    1
    36    29    30   ar
    37    30    31   ar
    38    31    36    1
    39    36    37    1
    40    37    38    1
    41    31    32   ar
    42    32    27   ar
    43    11     2   ar
    44    22    16   ar
    45     9     4   ar
    46    25    26    1
@<TRIPOS>MOLECULE
*****
 43 46 0 0 0
SMALL
GASTEIGER

@<TRIPOS>ATOM
      1 C         140.0444  141.9169  162.3303 C.3     1  UNL1        0.0798
      2 C         141.0847  142.2402  161.2990 C.ar    1  UNL1        0.0374
      3 C         141.5913  141.1662  160.3825 C.ar    1  UNL1        0.0023
      4 C         142.6315  141.4894  159.3513 C.ar    1  UNL1        0.0183
      5 C         143.1381  140.4154  158.4349 C.ar    1  UNL1        0.0118
      6 C         144.1784  140.7386  157.4036 C.ar    1  UNL1        0.0685
      7 C         144.7120  142.1358  157.2888 C.ar    1  UNL1        0.0118
      8 C         144.2053  143.2097  158.2053 C.ar    1  UNL1        0.0199
      9 C         143.1651  142.8866  159.2365 C.ar    1  UNL1        0.0844
     10 N         142.6585  143.9605  160.1529 N.ar    1  UNL1       -0.2119
     11 C         141.6182  143.6373  161.1842 C.ar    1  UNL1        0.2211
     12 C         144.6850  139.6646  156.4871 C.1     1  UNL1        0.1004
     13 N         145.1917  138.5907  155.5707 N.1     1  UNL1       -0.1908
     14 O         141.1116  144.7113  162.1007 O.3     1  UNL1       -0.4563
     15 C         142.0024  145.2630  163.1741 C.3     1  UNL1        0.2542
     16 C         140.2899  142.2479  163.7725 C.ar    1  UNL1        0.0115
     17 C         139.3047  143.0909  164.5267 C.ar    1  UNL1       -0.0017
     18 C         139.5501  143.4219  165.9690 C.ar    1  UNL1       -0.0005
     19 C         140.7807  142.9099  166.6571 C.ar    1  UNL1       -0.0021
     20 C         141.7659  142.0669  165.9029 C.ar    1  UNL1        0.0053
     21 C         142.9966  141.5549  166.5909 C.3     1  UNL1        0.0334
     22 C         141.5205  141.7359  164.4606 C.ar    1  UNL1        0.1325
     23 F         142.5056  140.8930  163.7064 F       1  UNL1       -0.2048
     24 C         138.7587  141.2627  161.9192 C.3     1  UNL1        0.1162
     25 O         138.3508  142.5152  161.2016 O.3     1  UNL1       -0.3820
     26 H         137.4790  142.3863  160.7963 H       1  UNL1        0.2107
     27 C         140.6874  137.9111  162.8118 C.ar    1  UNL1        0.2271
     28 C         140.2795  139.1635  162.0942 C.ar    1  UNL1        0.0559
     29 C         139.1666  140.0102  162.6368 C.ar    1  UNL1        0.0117
     30 C         138.4615  139.6045  163.8970 C.ar    1  UNL1        0.0559
     31 C         138.8694  138.3520  164.6146 C.ar    1  UNL1        0.2271
     32 N         139.9823  137.5053  164.0720 N.ar    1  UNL1       -0.1767
     33 O         141.8003  137.0643  162.2691 O.3     1  UNL1       -0.4602
     34 C         143.9039  138.4832  161.7109 C.3     1  UNL1        0.0512
     35 C         142.7525  137.6342  161.2599 C.3     1  UNL1        0.2072
     36 O         138.1643  137.9462  165.8749 O.3     1  UNL1       -0.4602
     37 C         138.0533  138.9128  167.0167 C.3     1  UNL1        0.2072
     38 C         139.2523  139.7034  167.4493 C.3     1  UNL1        0.0512
     39 C         137.4730  140.6085  161.5081 C.3     1  UNL1        0.0491
     40 C         137.4596  139.6290  160.3722 C.3     1  UNL1        0.0750
     41 N         138.1875  139.9463  159.0996 N.3     1  UNL1       -0.2702
     42 C         137.7638  141.1188  158.2655 C.3     1  UNL1        0.0897
     43 C         139.3392  139.0912  158.6612 C.3     1  UNL1        0.0897
@<TRIPOS>BOND
     1    34    35    1
     2    35    33    1
     3    33    27    1
     4    27    28   ar
     5    28    29   ar
     6    29    24    1
     7    24    25    1
     8    24    39    1
     9    39    40    1
    10    40    41    1
    11    41    42    1
    12    41    43    1
    13    24     1    1
    14     1     2    1
    15     2     3   ar
    16     3     4   ar
    17     4     5   ar
    18     5     6   ar
    19     6    12    1
    20    12    13    3
    21     6     7   ar
    22     7     8   ar
    23     8     9   ar
    24     9    10   ar
    25    10    11   ar
    26    11    14    1
    27    14    15    1
    28     1    16    1
    29    16    17   ar
    30    17    18   ar
    31    18    19   ar
    32    19    20   ar
    33    20    21    1
    34    20    22   ar
    35    22    23    1
    36    29    30   ar
    37    30    31   ar
    38    31    36    1
    39    36    37    1
    40    37    38    1
    41    31    32   ar
    42    32    27   ar
    43    11     2   ar
    44    22    16   ar
    45     9     4   ar
    46    25    26    1
