@<TRIPOS>MOLECULE
*****
 44 47 0 0 0
SMALL
GASTEIGER

@<TRIPOS>ATOM
      1 C         141.3954  140.8570  162.2439 C.3     1  UNL1        0.0808
      2 C         141.4050  140.6334  163.7272 C.ar    1  UNL1        0.0375
      3 C         141.0493  141.7553  164.6571 C.ar    1  UNL1        0.0023
      4 C         141.0589  141.5318  166.1403 C.ar    1  UNL1        0.0183
      5 C         140.7031  142.6537  167.0702 C.ar    1  UNL1        0.0118
      6 C         140.7127  142.4301  168.5534 C.ar    1  UNL1        0.0685
      7 C         141.0781  141.0846  169.1067 C.ar    1  UNL1        0.0118
      8 C         141.4338  139.9627  168.1768 C.ar    1  UNL1        0.0199
      9 C         141.4242  140.1862  166.6937 C.ar    1  UNL1        0.0844
     10 N         141.7800  139.0643  165.7638 N.ar    1  UNL1       -0.2119
     11 C         141.7704  139.2879  164.2805 C.ar    1  UNL1        0.2211
     12 C         140.3570  143.5520  169.4833 C.1     1  UNL1        0.1004
     13 N         140.0012  144.6740  170.4132 N.1     1  UNL1       -0.1908
     14 O         142.1261  138.1659  163.3506 O.3     1  UNL1       -0.4563
     15 C         140.9553  137.2285  163.3668 C.3     1  UNL1        0.2542
     16 C         140.2592  140.3367  161.4144 C.ar    1  UNL1        0.0245
     17 C         138.8435  140.6358  161.8098 C.ar    1  UNL1        0.0200
     18 C         137.7072  140.1155  160.9802 C.ar    1  UNL1        0.1019
     19 N         137.9866  139.2961  159.7552 N.ar    1  UNL1       -0.2076
     20 C         139.4023  138.9970  159.3598 C.ar    1  UNL1        0.2598
     21 C         140.5386  139.5173  160.1895 C.ar    1  UNL1        0.1879
     22 O         139.6818  138.1776  158.1349 O.3     1  UNL1       -0.4541
     23 C         139.9528  138.8558  156.8247 C.3     1  UNL1        0.2543
     24 O         141.9543  139.2182  159.7941 O.3     1  UNL1       -0.4670
     25 C         142.4951  137.8265  159.9379 C.3     1  UNL1        0.2527
     26 C         142.5221  141.6008  161.5903 C.3     1  UNL1        0.1162
     27 O         143.4559  140.4732  161.9165 O.3     1  UNL1       -0.3820
     28 H         144.3441  140.6836  161.5883 H       1  UNL1        0.2107
     29 C         140.0427  144.6665  162.0419 C.ar    1  UNL1        0.2258
     30 C         140.9765  143.5389  162.3681 C.ar    1  UNL1        0.0558
     31 C         141.5883  142.7285  161.2641 C.ar    1  UNL1        0.0098
     32 C         141.2663  143.0458  159.8339 C.ar    1  UNL1        0.0325
     33 C         140.3326  144.1735  159.5076 C.ar    1  UNL1        0.1347
     34 N         139.7207  144.9838  160.6117 N.ar    1  UNL1       -0.1967
     35 N         140.0106  144.4907  158.0773 N.pl3   1  UNL1       -0.2897
     36 C         139.2910  143.4841  157.2295 C.3     1  UNL1        0.1136
     37 C         140.4082  145.8146  157.4949 C.3     1  UNL1        0.1136
     38 C         138.9537  144.8006  164.3970 C.3     1  UNL1        0.2542
     39 O         139.4308  145.4769  163.1460 O.3     1  UNL1       -0.4561
     40 C         143.6488  142.3447  160.9367 C.3     1  UNL1        0.0491
     41 C         144.5727  143.1865  161.7661 C.3     1  UNL1        0.0750
     42 N         144.8413  142.8197  163.1955 N.3     1  UNL1       -0.2702
     43 C         145.8201  141.7301  163.5190 C.3     1  UNL1        0.0897
     44 C         144.1311  143.5425  164.3015 C.3     1  UNL1        0.0897
@<TRIPOS>BOND
     1    38    39    1
     2    39    29    1
     3    29    30   ar
     4    30    31   ar
     5    31    26    1
     6    26    27    1
     7    26    40    1
     8    40    41    1
     9    41    42    1
    10    42    43    1
    11    42    44    1
    12    26     1    1
    13     1     2    1
    14     2     3   ar
    15     3     4   ar
    16     4     5   ar
    17     5     6   ar
    18     6    12    1
    19    12    13    3
    20     6     7   ar
    21     7     8   ar
    22     8     9   ar
    23     9    10   ar
    24    10    11   ar
    25    11    14    1
    26    14    15    1
    27     1    16    1
    28    16    17   ar
    29    17    18   ar
    30    18    19   ar
    31    19    20   ar
    32    20    22    1
    33    22    23    1
    34    20    21   ar
    35    21    24    1
    36    24    25    1
    37    31    32   ar
    38    32    33   ar
    39    33    35    1
    40    35    36    1
    41    35    37    1
    42    33    34   ar
    43    34    29   ar
    44    11     2   ar
    45    21    16   ar
    46     9     4   ar
    47    27    28    1
@<TRIPOS>MOLECULE
*****
 44 47 0 0 0
SMALL
GASTEIGER

@<TRIPOS>ATOM
      1 C         141.2908  140.2538  162.1377 C.3     1  UNL1        0.0808
      2 C         140.8590  140.1219  163.5682 C.ar    1  UNL1        0.0375
      3 C         141.0191  141.2786  164.5096 C.ar    1  UNL1        0.0023
      4 C         140.5873  141.1468  165.9400 C.ar    1  UNL1        0.0183
      5 C         140.7475  142.3036  166.8815 C.ar    1  UNL1        0.0118
      6 C         140.3157  142.1717  168.3120 C.ar    1  UNL1        0.0685
      7 C         139.7237  140.8831  168.8009 C.ar    1  UNL1        0.0118
      8 C         139.5635  139.7264  167.8595 C.ar    1  UNL1        0.0199
      9 C         139.9953  139.8582  166.4291 C.ar    1  UNL1        0.0844
     10 N         139.8352  138.7015  165.4877 N.ar    1  UNL1       -0.2119
     11 C         140.2670  138.8334  164.0572 C.ar    1  UNL1        0.2211
     12 C         140.4759  143.3284  169.2534 C.1     1  UNL1        0.1004
     13 N         140.6360  144.4852  170.1948 N.1     1  UNL1       -0.1908
     14 O         140.1068  137.6766  163.1157 O.3     1  UNL1       -0.4563
     15 C         138.6393  137.5854  162.8188 C.3     1  UNL1        0.2542
     16 C         140.2718  140.1975  161.0384 C.ar    1  UNL1        0.0245
     17 C         139.1392  141.1806  161.0146 C.ar    1  UNL1        0.0200
     18 C         138.1202  141.1244  159.9153 C.ar    1  UNL1        0.1019
     19 N         138.2338  140.0849  158.8398 N.ar    1  UNL1       -0.2076
     20 C         139.3664  139.1018  158.8636 C.ar    1  UNL1        0.2598
     21 C         140.3855  139.1581  159.9630 C.ar    1  UNL1        0.1879
     22 O         139.4801  138.0623  157.7882 O.3     1  UNL1       -0.4541
     23 C         139.7731  138.4735  156.3757 C.3     1  UNL1        0.2543
     24 O         141.5181  138.1749  159.9868 O.3     1  UNL1       -0.4670
     25 C         142.6060  138.2590  158.9575 C.3     1  UNL1        0.2527
     26 C         142.7417  140.4419  161.8066 C.3     1  UNL1        0.1162
     27 O         143.0497  139.0953  162.3911 O.3     1  UNL1       -0.3820
     28 H         144.0006  138.9197  162.3152 H       1  UNL1        0.2107
     29 C         142.3395  143.3842  159.1739 C.ar    1  UNL1        0.2258
     30 C         142.6475  142.0376  159.7585 C.ar    1  UNL1        0.0558
     31 C         142.4336  141.7886  161.2221 C.ar    1  UNL1        0.0098
     32 C         141.9117  142.8862  162.1011 C.ar    1  UNL1        0.0325
     33 C         141.6037  144.2328  161.5166 C.ar    1  UNL1        0.1347
     34 N         141.8176  144.4818  160.0530 N.ar    1  UNL1       -0.1967
     35 N         141.0817  145.3304  162.3958 N.pl3   1  UNL1       -0.2897
     36 C         139.9608  146.2051  161.9178 C.3     1  UNL1        0.1136
     37 C         141.6806  145.5533  163.7528 C.3     1  UNL1        0.1136
     38 C         143.5845  142.8450  156.9582 C.3     1  UNL1        0.2542
     39 O         142.5534  143.6333  157.7102 O.3     1  UNL1       -0.4561
     40 C         144.1925  140.6301  161.4755 C.3     1  UNL1        0.0491
     41 C         145.0963  141.3384  162.4406 C.3     1  UNL1        0.0750
     42 N         144.9184  141.1419  163.9170 N.3     1  UNL1       -0.2702
     43 C         145.1690  139.7961  164.5302 C.3     1  UNL1        0.0897
     44 C         144.4898  142.2914  164.7803 C.3     1  UNL1        0.0897
@<TRIPOS>BOND
     1    38    39    1
     2    39    29    1
     3    29    30   ar
     4    30    31   ar
     5    31    26    1
     6    26    27    1
     7    26    40    1
     8    40    41    1
     9    41    42    1
    10    42    43    1
    11    42    44    1
    12    26     1    1
    13     1     2    1
    14     2     3   ar
    15     3     4   ar
    16     4     5   ar
    17     5     6   ar
    18     6    12    1
    19    12    13    3
    20     6     7   ar
    21     7     8   ar
    22     8     9   ar
    23     9    10   ar
    24    10    11   ar
    25    11    14    1
    26    14    15    1
    27     1    16    1
    28    16    17   ar
    29    17    18   ar
    30    18    19   ar
    31    19    20   ar
    32    20    22    1
    33    22    23    1
    34    20    21   ar
    35    21    24    1
    36    24    25    1
    37    31    32   ar
    38    32    33   ar
    39    33    35    1
    40    35    36    1
    41    35    37    1
    42    33    34   ar
    43    34    29   ar
    44    11     2   ar
    45    21    16   ar
    46     9     4   ar
    47    27    28    1
@<TRIPOS>MOLECULE
*****
 44 47 0 0 0
SMALL
GASTEIGER

@<TRIPOS>ATOM
      1 C         141.6530  142.0588  162.4748 C.3     1  UNL1        0.0808
      2 C         142.0707  142.1068  163.9147 C.ar    1  UNL1        0.0375
      3 C         141.2224  141.4515  164.9639 C.ar    1  UNL1        0.0023
      4 C         141.6401  141.4995  166.4038 C.ar    1  UNL1        0.0183
      5 C         140.7918  140.8441  167.4530 C.ar    1  UNL1        0.0118
      6 C         141.2095  140.8921  168.8929 C.ar    1  UNL1        0.0685
      7 C         142.4755  141.5954  169.2836 C.ar    1  UNL1        0.0118
      8 C         143.3238  142.2508  168.2343 C.ar    1  UNL1        0.0199
      9 C         142.9061  142.2028  166.7945 C.ar    1  UNL1        0.0844
     10 N         143.7544  142.8582  165.7452 N.ar    1  UNL1       -0.2119
     11 C         143.3367  142.8101  164.3053 C.ar    1  UNL1        0.2211
     12 C         140.3612  140.2368  169.9422 C.1     1  UNL1        0.1004
     13 N         139.5129  139.5814  170.9914 N.1     1  UNL1       -0.1908
     14 O         144.1850  143.4655  163.2561 O.3     1  UNL1       -0.4563
     15 C         143.9162  144.9370  163.3669 C.3     1  UNL1        0.2542
     16 C         142.5497  141.4224  161.4546 C.ar    1  UNL1        0.0245
     17 C         142.8860  139.9642  161.5571 C.ar    1  UNL1        0.0200
     18 C         143.7827  139.3277  160.5369 C.ar    1  UNL1        0.1019
     19 N         144.3431  140.1495  159.4141 N.ar    1  UNL1       -0.2076
     20 C         144.0067  141.6077  159.3115 C.ar    1  UNL1        0.2598
     21 C         143.1100  142.2441  160.3318 C.ar    1  UNL1        0.1879
     22 O         144.5671  142.4295  158.1887 O.3     1  UNL1       -0.4541
     23 C         144.3254  142.0196  156.7662 C.3     1  UNL1        0.2543
     24 O         142.7737  143.7023  160.2292 O.3     1  UNL1       -0.4670
     25 C         141.8510  144.1851  159.1495 C.3     1  UNL1        0.2527
     26 C         140.3386  142.6473  162.0552 C.3     1  UNL1        0.1162
     27 O         140.7942  143.9980  162.5222 O.3     1  UNL1       -0.3820
     28 H         140.0911  144.6479  162.3670 H       1  UNL1        0.2107
     29 C         139.0525  138.8935  162.1219 C.ar    1  UNL1        0.2258
     30 C         139.5081  140.2441  162.5889 C.ar    1  UNL1        0.0558
     31 C         139.8830  141.2966  161.5882 C.ar    1  UNL1        0.0098
     32 C         139.8024  140.9984  160.1203 C.ar    1  UNL1        0.0325
     33 C         139.3468  139.6478  159.6533 C.ar    1  UNL1        0.1347
     34 N         138.9718  138.5953  160.6541 N.ar    1  UNL1       -0.1967
     35 N         139.2661  139.3496  158.1854 N.pl3   1  UNL1       -0.2897
     36 C         138.5949  140.3196  157.2588 C.3     1  UNL1        0.1136
     37 C         139.8567  138.0815  157.6441 C.3     1  UNL1        0.1136
     38 C         138.9568  138.0587  164.5804 C.3     1  UNL1        0.2542
     39 O         138.6775  137.8410  163.1228 O.3     1  UNL1       -0.4561
     40 C         139.0242  143.2358  161.6356 C.3     1  UNL1        0.0491
     41 C         138.2701  144.1316  162.5731 C.3     1  UNL1        0.0750
     42 N         138.2022  143.8008  164.0346 N.3     1  UNL1       -0.2702
     43 C         138.7012  144.7853  165.0503 C.3     1  UNL1        0.0897
     44 C         137.6353  142.4855  164.4803 C.3     1  UNL1        0.0897
@<TRIPOS>BOND
     1    38    39    1
     2    39    29    1
     3    29    30   ar
     4    30    31   ar
     5    31    26    1
     6    26    27    1
     7    26    40    1
     8    40    41    1
     9    41    42    1
    10    42    43    1
    11    42    44    1
    12    26     1    1
    13     1     2    1
    14     2     3   ar
    15     3     4   ar
    16     4     5   ar
    17     5     6   ar
    18     6    12    1
    19    12    13    3
    20     6     7   ar
    21     7     8   ar
    22     8     9   ar
    23     9    10   ar
    24    10    11   ar
    25    11    14    1
    26    14    15    1
    27     1    16    1
    28    16    17   ar
    29    17    18   ar
    30    18    19   ar
    31    19    20   ar
    32    20    22    1
    33    22    23    1
    34    20    21   ar
    35    21    24    1
    36    24    25    1
    37    31    32   ar
    38    32    33   ar
    39    33    35    1
    40    35    36    1
    41    35    37    1
    42    33    34   ar
    43    34    29   ar
    44    11     2   ar
    45    21    16   ar
    46     9     4   ar
    47    27    28    1
@<TRIPOS>MOLECULE
*****
 44 47 0 0 0
SMALL
GASTEIGER

@<TRIPOS>ATOM
      1 C         141.0175  140.5928  162.5410 C.3     1  UNL1        0.0808
      2 C         141.4390  140.2401  163.9368 C.ar    1  UNL1        0.0375
      3 C         141.5972  141.3183  164.9675 C.ar    1  UNL1        0.0023
      4 C         142.0187  140.9657  166.3631 C.ar    1  UNL1        0.0183
      5 C         142.1769  142.0439  167.3939 C.ar    1  UNL1        0.0118
      6 C         142.5985  141.6912  168.7896 C.ar    1  UNL1        0.0685
      7 C         142.8619  140.2604  169.1545 C.ar    1  UNL1        0.0118
      8 C         142.7037  139.1821  168.1238 C.ar    1  UNL1        0.0199
      9 C         142.2822  139.5348  166.7281 C.ar    1  UNL1        0.0844
     10 N         142.1241  138.4565  165.6974 N.ar    1  UNL1       -0.2119
     11 C         141.7025  138.8092  164.3017 C.ar    1  UNL1        0.2211
     12 C         142.7566  142.7695  169.8203 C.1     1  UNL1        0.1004
     13 N         142.9147  143.8477  170.8511 N.1     1  UNL1       -0.1908
     14 O         141.5443  137.7310  163.2709 O.3     1  UNL1       -0.4563
     15 C         140.1445  137.2144  163.4245 C.3     1  UNL1        0.2542
     16 C         141.7845  140.0581  161.3682 C.ar    1  UNL1        0.0245
     17 C         143.2606  140.3032  161.2627 C.ar    1  UNL1        0.0200
     18 C         144.0277  139.7685  160.0898 C.ar    1  UNL1        0.1019
     19 N         143.3187  138.9887  159.0224 N.ar    1  UNL1       -0.2076
     20 C         141.8427  138.7437  159.1279 C.ar    1  UNL1        0.2598
     21 C         141.0756  139.2784  160.3008 C.ar    1  UNL1        0.1879
     22 O         141.1337  137.9639  158.0605 O.3     1  UNL1       -0.4541
     23 C         141.9237  137.2345  157.0147 C.3     1  UNL1        0.2543
     24 O         139.5995  139.0333  160.4063 O.3     1  UNL1       -0.4670
     25 C         138.6582  139.6990  159.4467 C.3     1  UNL1        0.2527
     26 C         139.8288  141.4801  162.3183 C.3     1  UNL1        0.1162
     27 O         138.9467  140.4655  162.9834 O.3     1  UNL1       -0.3820
     28 H         138.0318  140.7877  162.9909 H       1  UNL1        0.2107
     29 C         142.7025  144.1597  161.7601 C.ar    1  UNL1        0.2258
     30 C         141.8204  143.1450  162.4252 C.ar    1  UNL1        0.0558
     31 C         140.7109  142.4948  161.6532 C.ar    1  UNL1        0.0098
     32 C         140.4834  142.8593  160.2161 C.ar    1  UNL1        0.0325
     33 C         141.3655  143.8739  159.5510 C.ar    1  UNL1        0.1347
     34 N         142.4750  144.5242  160.3230 N.ar    1  UNL1       -0.1967
     35 N         141.1380  144.2384  158.1138 N.pl3   1  UNL1       -0.2897
     36 C         140.3978  145.4962  157.7671 C.3     1  UNL1        0.1136
     37 C         141.6507  143.3451  157.0233 C.3     1  UNL1        0.1136
     38 C         143.6483  145.0778  163.9990 C.3     1  UNL1        0.2542
     39 O         143.8121  144.8099  162.5322 O.3     1  UNL1       -0.4561
     40 C         138.6401  142.3675  162.0955 C.3     1  UNL1        0.0491
     41 C         138.0364  143.1157  163.2470 C.3     1  UNL1        0.0750
     42 N         138.5968  144.4465  163.6531 N.3     1  UNL1       -0.2702
     43 C         138.7753  144.7733  165.1061 C.3     1  UNL1        0.0897
     44 C         138.9787  145.4505  162.6061 C.3     1  UNL1        0.0897
@<TRIPOS>BOND
     1    38    39    1
     2    39    29    1
     3    29    30   ar
     4    30    31   ar
     5    31    26    1
     6    26    27    1
     7    26    40    1
     8    40    41    1
     9    41    42    1
    10    42    43    1
    11    42    44    1
    12    26     1    1
    13     1     2    1
    14     2     3   ar
    15     3     4   ar
    16     4     5   ar
    17     5     6   ar
    18     6    12    1
    19    12    13    3
    20     6     7   ar
    21     7     8   ar
    22     8     9   ar
    23     9    10   ar
    24    10    11   ar
    25    11    14    1
    26    14    15    1
    27     1    16    1
    28    16    17   ar
    29    17    18   ar
    30    18    19   ar
    31    19    20   ar
    32    20    22    1
    33    22    23    1
    34    20    21   ar
    35    21    24    1
    36    24    25    1
    37    31    32   ar
    38    32    33   ar
    39    33    35    1
    40    35    36    1
    41    35    37    1
    42    33    34   ar
    43    34    29   ar
    44    11     2   ar
    45    21    16   ar
    46     9     4   ar
    47    27    28    1
@<TRIPOS>MOLECULE
*****
 44 47 0 0 0
SMALL
GASTEIGER

@<TRIPOS>ATOM
      1 C         140.1711  141.2670  162.1669 C.3     1  UNL1        0.0808
      2 C         139.9279  140.9240  163.6069 C.ar    1  UNL1        0.0375
      3 C         140.6464  141.6749  164.6884 C.ar    1  UNL1        0.0023
      4 C         140.4032  141.3320  166.1283 C.ar    1  UNL1        0.0183
      5 C         141.1217  142.0829  167.2098 C.ar    1  UNL1        0.0118
      6 C         140.8785  141.7399  168.6497 C.ar    1  UNL1        0.0685
      7 C         139.9168  140.6460  169.0080 C.ar    1  UNL1        0.0118
      8 C         139.1982  139.8950  167.9264 C.ar    1  UNL1        0.0199
      9 C         139.4414  140.2380  166.4866 C.ar    1  UNL1        0.0844
     10 N         138.7229  139.4871  165.4050 N.ar    1  UNL1       -0.2119
     11 C         138.9661  139.8301  163.9651 C.ar    1  UNL1        0.2211
     12 C         141.5970  142.4908  169.7313 C.1     1  UNL1        0.1004
     13 N         142.3156  143.2418  170.8129 N.1     1  UNL1       -0.1908
     14 O         138.2476  139.0791  162.8835 O.3     1  UNL1       -0.4563
     15 C         138.7542  137.6690  162.9527 C.3     1  UNL1        0.2542
     16 C         140.5788  140.1958  161.1993 C.ar    1  UNL1        0.0245
     17 C         141.8352  139.4110  161.4348 C.ar    1  UNL1        0.0200
     18 C         142.2428  138.3398  160.4672 C.ar    1  UNL1        0.1019
     19 N         141.3941  138.0535  159.2640 N.ar    1  UNL1       -0.2076
     20 C         140.1377  138.8383  159.0284 C.ar    1  UNL1        0.2598
     21 C         139.7300  139.9095  159.9962 C.ar    1  UNL1        0.1879
     22 O         139.2890  138.5520  157.8253 O.3     1  UNL1       -0.4541
     23 C         139.7729  137.5948  156.7768 C.3     1  UNL1        0.2543
     24 O         138.4737  140.6944  159.7606 O.3     1  UNL1       -0.4670
     25 C         138.4013  141.6709  158.6243 C.3     1  UNL1        0.2527
     26 C         140.0066  142.6812  161.6948 C.3     1  UNL1        0.1162
     27 O         138.5468  142.6250  162.0348 O.3     1  UNL1       -0.3820
     28 H         138.1318  143.4751  161.8203 H       1  UNL1        0.2107
     29 C         143.9517  142.8022  162.1094 C.ar    1  UNL1        0.2258
     30 C         142.4918  142.7460  162.4495 C.ar    1  UNL1        0.0558
     31 C         141.4665  142.7374  161.3547 C.ar    1  UNL1        0.0098
     32 C         141.9010  142.7851  159.9198 C.ar    1  UNL1        0.0325
     33 C         143.3609  142.8413  159.5798 C.ar    1  UNL1        0.1347
     34 N         144.3862  142.8499  160.6745 N.ar    1  UNL1       -0.1967
     35 N         143.7954  142.8890  158.1448 N.pl3   1  UNL1       -0.2897
     36 C         145.1402  142.3543  157.7502 C.3     1  UNL1        0.1136
     37 C         142.8852  143.4714  157.1045 C.3     1  UNL1        0.1136
     38 C         145.7726  141.5732  163.4964 C.3     1  UNL1        0.2542
     39 O         144.9770  142.8108  163.2043 O.3     1  UNL1       -0.4561
     40 C         139.8422  144.0954  161.2226 C.3     1  UNL1        0.0491
     41 C         139.4020  145.1604  162.1829 C.3     1  UNL1        0.0750
     42 N         139.8662  145.1228  163.6088 N.3     1  UNL1       -0.2702
     43 C         141.3069  145.3822  163.9356 C.3     1  UNL1        0.0897
     44 C         138.8895  144.8258  164.7079 C.3     1  UNL1        0.0897
@<TRIPOS>BOND
     1    38    39    1
     2    39    29    1
     3    29    30   ar
     4    30    31   ar
     5    31    26    1
     6    26    27    1
     7    26    40    1
     8    40    41    1
     9    41    42    1
    10    42    43    1
    11    42    44    1
    12    26     1    1
    13     1     2    1
    14     2     3   ar
    15     3     4   ar
    16     4     5   ar
    17     5     6   ar
    18     6    12    1
    19    12    13    3
    20     6     7   ar
    21     7     8   ar
    22     8     9   ar
    23     9    10   ar
    24    10    11   ar
    25    11    14    1
    26    14    15    1
    27     1    16    1
    28    16    17   ar
    29    17    18   ar
    30    18    19   ar
    31    19    20   ar
    32    20    22    1
    33    22    23    1
    34    20    21   ar
    35    21    24    1
    36    24    25    1
    37    31    32   ar
    38    32    33   ar
    39    33    35    1
    40    35    36    1
    41    35    37    1
    42    33    34   ar
    43    34    29   ar
    44    11     2   ar
    45    21    16   ar
    46     9     4   ar
    47    27    28    1
@<TRIPOS>MOLECULE
*****
 44 47 0 0 0
SMALL
GASTEIGER

@<TRIPOS>ATOM
      1 C         139.9161  141.2938  162.0717 C.3     1  UNL1        0.0808
      2 C         139.6231  140.8582  163.4769 C.ar    1  UNL1        0.0375
      3 C         140.3159  141.5246  164.6285 C.ar    1  UNL1        0.0023
      4 C         140.0230  141.0891  166.0336 C.ar    1  UNL1        0.0183
      5 C         140.7157  141.7555  167.1852 C.ar    1  UNL1        0.0118
      6 C         140.4227  141.3199  168.5904 C.ar    1  UNL1        0.0685
      7 C         139.4371  140.2180  168.8440 C.ar    1  UNL1        0.0118
      8 C         138.7444  139.5516  167.6924 C.ar    1  UNL1        0.0199
      9 C         139.0373  139.9871  166.2873 C.ar    1  UNL1        0.0844
     10 N         138.3446  139.3207  165.1357 N.ar    1  UNL1       -0.2119
     11 C         138.6375  139.7563  163.7305 C.ar    1  UNL1        0.2211
     12 C         141.1154  141.9863  169.7420 C.1     1  UNL1        0.1004
     13 N         141.8081  142.6526  170.8935 N.1     1  UNL1       -0.1908
     14 O         137.9448  139.0899  162.5790 O.3     1  UNL1       -0.4563
     15 C         138.4827  137.6907  162.5266 C.3     1  UNL1        0.2542
     16 C         140.3208  140.2813  161.0416 C.ar    1  UNL1        0.0245
     17 C         141.5398  139.4350  161.2602 C.ar    1  UNL1        0.0200
     18 C         141.9445  138.4226  160.2302 C.ar    1  UNL1        0.1019
     19 N         141.1302  138.2564  158.9814 N.ar    1  UNL1       -0.2076
     20 C         139.9112  139.1027  158.7628 C.ar    1  UNL1        0.2598
     21 C         139.5065  140.1152  159.7929 C.ar    1  UNL1        0.1879
     22 O         139.0969  138.9366  157.5141 O.3     1  UNL1       -0.4541
     23 C         139.6798  139.3101  156.1834 C.3     1  UNL1        0.2543
     24 O         138.2875  140.9615  159.5743 O.3     1  UNL1       -0.4670
     25 C         138.2937  142.0270  158.5184 C.3     1  UNL1        0.2527
     26 C         139.8043  142.7418  161.6967 C.3     1  UNL1        0.1162
     27 O         138.3252  142.6909  161.9409 O.3     1  UNL1       -0.3820
     28 H         137.9382  143.5628  161.7649 H       1  UNL1        0.2107
     29 C         143.2868  143.0200  159.8139 C.ar    1  UNL1        0.2258
     30 C         141.8077  142.9691  160.0582 C.ar    1  UNL1        0.0558
     31 C         141.2834  142.7928  161.4524 C.ar    1  UNL1        0.0098
     32 C         142.2382  142.6673  162.6024 C.ar    1  UNL1        0.0325
     33 C         143.7173  142.7182  162.3581 C.ar    1  UNL1        0.1347
     34 N         144.2416  142.8946  160.9639 N.ar    1  UNL1       -0.1967
     35 N         144.6722  142.5927  163.5082 N.pl3   1  UNL1       -0.2897
     36 C         145.8209  141.6315  163.4278 C.3     1  UNL1        0.1136
     37 C         144.4783  143.4285  164.7386 C.3     1  UNL1        0.1136
     38 C         143.0443  142.6442  157.2546 C.3     1  UNL1        0.2542
     39 O         143.8110  143.1964  158.4195 O.3     1  UNL1       -0.4561
     40 C         139.6925  144.1899  161.3216 C.3     1  UNL1        0.0491
     41 C         139.2338  145.1943  162.3369 C.3     1  UNL1        0.0750
     42 N         139.6594  145.0611  163.7691 N.3     1  UNL1       -0.2702
     43 C         138.6451  144.7390  164.8261 C.3     1  UNL1        0.0897
     44 C         141.0994  145.2502  164.1442 C.3     1  UNL1        0.0897
@<TRIPOS>BOND
     1    38    39    1
     2    39    29    1
     3    29    30   ar
     4    30    31   ar
     5    31    26    1
     6    26    27    1
     7    26    40    1
     8    40    41    1
     9    41    42    1
    10    42    43    1
    11    42    44    1
    12    26     1    1
    13     1     2    1
    14     2     3   ar
    15     3     4   ar
    16     4     5   ar
    17     5     6   ar
    18     6    12    1
    19    12    13    3
    20     6     7   ar
    21     7     8   ar
    22     8     9   ar
    23     9    10   ar
    24    10    11   ar
    25    11    14    1
    26    14    15    1
    27     1    16    1
    28    16    17   ar
    29    17    18   ar
    30    18    19   ar
    31    19    20   ar
    32    20    22    1
    33    22    23    1
    34    20    21   ar
    35    21    24    1
    36    24    25    1
    37    31    32   ar
    38    32    33   ar
    39    33    35    1
    40    35    36    1
    41    35    37    1
    42    33    34   ar
    43    34    29   ar
    44    11     2   ar
    45    21    16   ar
    46     9     4   ar
    47    27    28    1
@<TRIPOS>MOLECULE
*****
 44 47 0 0 0
SMALL
GASTEIGER

@<TRIPOS>ATOM
      1 C         141.3245  140.2663  162.1569 C.3     1  UNL1        0.0808
      2 C         140.8867  140.1381  163.5859 C.ar    1  UNL1        0.0375
      3 C         141.0093  141.3088  164.5157 C.ar    1  UNL1        0.0023
      4 C         140.5715  141.1808  165.9446 C.ar    1  UNL1        0.0183
      5 C         140.6940  142.3515  166.8744 C.ar    1  UNL1        0.0118
      6 C         140.2562  142.2234  168.3034 C.ar    1  UNL1        0.0685
      7 C         139.6958  140.9246  168.8025 C.ar    1  UNL1        0.0118
      8 C         139.5733  139.7539  167.8728 C.ar    1  UNL1        0.0199
      9 C         140.0111  139.8820  166.4438 C.ar    1  UNL1        0.0844
     10 N         139.8885  138.7113  165.5141 N.ar    1  UNL1       -0.2119
     11 C         140.3263  138.8394  164.0850 C.ar    1  UNL1        0.2211
     12 C         140.3788  143.3940  169.2331 C.1     1  UNL1        0.1004
     13 N         140.5014  144.5647  170.1629 N.1     1  UNL1       -0.1908
     14 O         140.2037  137.6687  163.1553 O.3     1  UNL1       -0.4563
     15 C         138.7399  137.5267  162.8602 C.3     1  UNL1        0.2542
     16 C         140.3085  140.2218  161.0543 C.ar    1  UNL1        0.0245
     17 C         139.2083  141.2403  161.0067 C.ar    1  UNL1        0.0200
     18 C         138.1923  141.1959  159.9042 C.ar    1  UNL1        0.1019
     19 N         138.2764  140.1329  158.8491 N.ar    1  UNL1       -0.2076
     20 C         139.3766  139.1144  158.8967 C.ar    1  UNL1        0.2598
     21 C         140.3926  139.1589  159.9994 C.ar    1  UNL1        0.1879
     22 O         139.4608  138.0514  157.8417 O.3     1  UNL1       -0.4541
     23 C         139.7986  138.4228  156.4283 C.3     1  UNL1        0.2543
     24 O         141.4928  138.1404  160.0469 O.3     1  UNL1       -0.4670
     25 C         142.5816  138.1637  159.0154 C.3     1  UNL1        0.2527
     26 C         142.7784  140.4388  161.8305 C.3     1  UNL1        0.1162
     27 O         143.0666  139.0797  162.3959 O.3     1  UNL1       -0.3820
     28 H         144.0151  138.8919  162.3188 H       1  UNL1        0.2107
     29 C         141.7099  144.2538  161.5971 C.ar    1  UNL1        0.2258
     30 C         141.9981  142.8946  162.1625 C.ar    1  UNL1        0.0558
     31 C         142.4901  141.7980  161.2652 C.ar    1  UNL1        0.0098
     32 C         142.6939  142.0605  159.8025 C.ar    1  UNL1        0.0325
     33 C         142.4057  143.4196  159.2371 C.ar    1  UNL1        0.1347
     34 N         141.9137  144.5163  160.1344 N.ar    1  UNL1       -0.1967
     35 N         142.6095  143.6821  157.7743 N.pl3   1  UNL1       -0.2897
     36 C         143.6094  142.8756  156.9998 C.3     1  UNL1        0.1136
     37 C         141.8135  144.7510  157.0861 C.3     1  UNL1        0.1136
     38 C         141.7540  145.4749  163.8899 C.3     1  UNL1        0.2542
     39 O         141.2179  145.3504  162.4945 O.3     1  UNL1       -0.4561
     40 C         144.2322  140.6114  161.5042 C.3     1  UNL1        0.0491
     41 C         145.1110  141.4286  162.4041 C.3     1  UNL1        0.0750
     42 N         144.9751  141.3115  163.8934 N.3     1  UNL1       -0.2702
     43 C         144.6408  142.5221  164.7135 C.3     1  UNL1        0.0897
     44 C         145.1734  139.9836  164.5625 C.3     1  UNL1        0.0897
@<TRIPOS>BOND
     1    38    39    1
     2    39    29    1
     3    29    30   ar
     4    30    31   ar
     5    31    26    1
     6    26    27    1
     7    26    40    1
     8    40    41    1
     9    41    42    1
    10    42    43    1
    11    42    44    1
    12    26     1    1
    13     1     2    1
    14     2     3   ar
    15     3     4   ar
    16     4     5   ar
    17     5     6   ar
    18     6    12    1
    19    12    13    3
    20     6     7   ar
    21     7     8   ar
    22     8     9   ar
    23     9    10   ar
    24    10    11   ar
    25    11    14    1
    26    14    15    1
    27     1    16    1
    28    16    17   ar
    29    17    18   ar
    30    18    19   ar
    31    19    20   ar
    32    20    22    1
    33    22    23    1
    34    20    21   ar
    35    21    24    1
    36    24    25    1
    37    31    32   ar
    38    32    33   ar
    39    33    35    1
    40    35    36    1
    41    35    37    1
    42    33    34   ar
    43    34    29   ar
    44    11     2   ar
    45    21    16   ar
    46     9     4   ar
    47    27    28    1
@<TRIPOS>MOLECULE
*****
 44 47 0 0 0
SMALL
GASTEIGER

@<TRIPOS>ATOM
      1 C         140.5492  140.5155  162.3145 C.3     1  UNL1        0.0808
      2 C         140.3117  140.3584  163.7873 C.ar    1  UNL1        0.0375
      3 C         140.4961  141.5298  164.7058 C.ar    1  UNL1        0.0023
      4 C         140.2587  141.3728  166.1785 C.ar    1  UNL1        0.0183
      5 C         140.4431  142.5443  167.0970 C.ar    1  UNL1        0.0118
      6 C         140.2057  142.3872  168.5698 C.ar    1  UNL1        0.0685
      7 C         139.7839  141.0587  169.1240 C.ar    1  UNL1        0.0118
      8 C         139.5995  139.8872  168.2055 C.ar    1  UNL1        0.0199
      9 C         139.8369  140.0443  166.7328 C.ar    1  UNL1        0.0844
     10 N         139.6525  138.8728  165.8142 N.ar    1  UNL1       -0.2119
     11 C         139.8900  139.0299  164.3414 C.ar    1  UNL1        0.2211
     12 C         140.3901  143.5586  169.4884 C.1     1  UNL1        0.1004
     13 N         140.5745  144.7301  170.4069 N.1     1  UNL1       -0.1908
     14 O         139.7056  137.8584  163.4229 O.3     1  UNL1       -0.4563
     15 C         140.8928  136.9688  163.6441 C.3     1  UNL1        0.2542
     16 C         141.7805  139.9326  161.6869 C.ar    1  UNL1        0.0245
     17 C         143.1360  140.4346  162.0877 C.ar    1  UNL1        0.0200
     18 C         144.3674  139.8517  161.4601 C.ar    1  UNL1        0.1019
     19 N         144.2433  138.7667  160.4318 N.ar    1  UNL1       -0.2076
     20 C         142.8879  138.2646  160.0310 C.ar    1  UNL1        0.2598
     21 C         141.6564  138.8476  160.6586 C.ar    1  UNL1        0.1879
     22 O         142.7637  137.1797  159.0027 O.3     1  UNL1       -0.4541
     23 C         142.8203  137.5199  157.5430 C.3     1  UNL1        0.2543
     24 O         140.3009  138.3456  160.2579 O.3     1  UNL1       -0.4670
     25 C         139.8142  138.5408  158.8525 C.3     1  UNL1        0.2527
     26 C         139.5552  141.2555  161.4693 C.3     1  UNL1        0.1162
     27 O         138.5517  140.1633  161.6932 O.3     1  UNL1       -0.3820
     28 H         137.7293  140.3791  161.2262 H       1  UNL1        0.2107
     29 C         141.9020  144.3858  162.1348 C.ar    1  UNL1        0.2258
     30 C         140.8986  143.2937  162.3587 C.ar    1  UNL1        0.0558
     31 C         140.5586  142.3477  161.2454 C.ar    1  UNL1        0.0098
     32 C         141.2222  142.4939  159.9082 C.ar    1  UNL1        0.0325
     33 C         142.2257  143.5861  159.6843 C.ar    1  UNL1        0.1347
     34 N         142.5656  144.5321  160.7976 N.ar    1  UNL1       -0.1967
     35 N         142.8893  143.7323  158.3469 N.pl3   1  UNL1       -0.2897
     36 C         144.0299  142.8326  157.9733 C.3     1  UNL1        0.1136
     37 C         142.4123  144.7782  157.3833 C.3     1  UNL1        0.1136
     38 C         143.5627  145.2200  163.9505 C.3     1  UNL1        0.2542
     39 O         142.2420  145.3318  163.2483 O.3     1  UNL1       -0.4561
     40 C         138.5611  141.9955  160.6241 C.3     1  UNL1        0.0491
     41 C         137.8475  141.2864  159.5115 C.3     1  UNL1        0.0750
     42 N         138.0808  141.6984  158.0882 N.3     1  UNL1       -0.2702
     43 C         138.6687  143.0444  157.7838 C.3     1  UNL1        0.0897
     44 C         137.7263  140.7644  156.9692 C.3     1  UNL1        0.0897
@<TRIPOS>BOND
     1    38    39    1
     2    39    29    1
     3    29    30   ar
     4    30    31   ar
     5    31    26    1
     6    26    27    1
     7    26    40    1
     8    40    41    1
     9    41    42    1
    10    42    43    1
    11    42    44    1
    12    26     1    1
    13     1     2    1
    14     2     3   ar
    15     3     4   ar
    16     4     5   ar
    17     5     6   ar
    18     6    12    1
    19    12    13    3
    20     6     7   ar
    21     7     8   ar
    22     8     9   ar
    23     9    10   ar
    24    10    11   ar
    25    11    14    1
    26    14    15    1
    27     1    16    1
    28    16    17   ar
    29    17    18   ar
    30    18    19   ar
    31    19    20   ar
    32    20    22    1
    33    22    23    1
    34    20    21   ar
    35    21    24    1
    36    24    25    1
    37    31    32   ar
    38    32    33   ar
    39    33    35    1
    40    35    36    1
    41    35    37    1
    42    33    34   ar
    43    34    29   ar
    44    11     2   ar
    45    21    16   ar
    46     9     4   ar
    47    27    28    1
@<TRIPOS>MOLECULE
*****
 44 47 0 0 0
SMALL
GASTEIGER

@<TRIPOS>ATOM
      1 C         140.7076  140.6622  163.4385 C.3     1  UNL1        0.0808
      2 C         140.5242  140.6392  164.9271 C.ar    1  UNL1        0.0375
      3 C         141.3739  141.5134  165.8010 C.ar    1  UNL1        0.0023
      4 C         141.1905  141.4905  167.2895 C.ar    1  UNL1        0.0183
      5 C         142.0402  142.3647  168.1635 C.ar    1  UNL1        0.0118
      6 C         141.8568  142.3417  169.6521 C.ar    1  UNL1        0.0685
      7 C         140.8237  141.4446  170.2667 C.ar    1  UNL1        0.0118
      8 C         139.9740  140.5704  169.3928 C.ar    1  UNL1        0.0199
      9 C         140.1574  140.5933  167.9042 C.ar    1  UNL1        0.0844
     10 N         139.3076  139.7191  167.0303 N.ar    1  UNL1       -0.2119
     11 C         139.4911  139.7421  165.5417 C.ar    1  UNL1        0.2211
     12 C         142.7065  143.2159  170.5260 C.1     1  UNL1        0.1004
     13 N         143.5563  144.0901  171.3999 N.1     1  UNL1       -0.1908
     14 O         138.6413  138.8679  164.6678 O.3     1  UNL1       -0.4563
     15 C         138.7795  137.4779  165.2143 C.3     1  UNL1        0.2542
     16 C         139.6711  141.3045  162.5649 C.ar    1  UNL1        0.0245
     17 C         139.1585  142.6754  162.8934 C.ar    1  UNL1        0.0200
     18 C         138.1220  143.3177  162.0198 C.ar    1  UNL1        0.1019
     19 N         137.5982  142.5892  160.8177 N.ar    1  UNL1       -0.2076
     20 C         138.1109  141.2183  160.4893 C.ar    1  UNL1        0.2598
     21 C         139.1474  140.5760  161.3629 C.ar    1  UNL1        0.1879
     22 O         137.5871  140.4898  159.2873 O.3     1  UNL1       -0.4541
     23 C         137.9983  140.9213  157.9108 C.3     1  UNL1        0.2543
     24 O         139.6601  139.2051  161.0344 O.3     1  UNL1       -0.4670
     25 C         138.7983  138.0027  161.2827 C.3     1  UNL1        0.2527
     26 C         141.9275  140.0428  162.8235 C.3     1  UNL1        0.1162
     27 O         141.4235  138.6800  163.1963 O.3     1  UNL1       -0.3820
     28 H         142.0586  138.0087  162.9017 H       1  UNL1        0.2107
     29 C         143.6114  143.6252  163.1068 C.ar    1  UNL1        0.2258
     30 C         143.1074  142.2625  163.4796 C.ar    1  UNL1        0.0558
     31 C         142.4315  141.4055  162.4507 C.ar    1  UNL1        0.0098
     32 C         142.2595  141.9112  161.0491 C.ar    1  UNL1        0.0325
     33 C         142.7635  143.2739  160.6763 C.ar    1  UNL1        0.1347
     34 N         143.4395  144.1309  161.7052 N.ar    1  UNL1       -0.1967
     35 N         142.5916  143.7796  159.2746 N.pl3   1  UNL1       -0.2897
     36 C         143.4715  143.2600  158.1766 C.3     1  UNL1        0.1136
     37 C         141.5397  144.8049  158.9709 C.3     1  UNL1        0.1136
     38 C         144.6578  143.9025  165.4686 C.3     1  UNL1        0.2542
     39 O         144.2874  144.4822  164.1357 O.3     1  UNL1       -0.4561
     40 C         143.1474  139.4234  162.2085 C.3     1  UNL1        0.0491
     41 C         143.0038  138.2925  161.2335 C.3     1  UNL1        0.0750
     42 N         143.1866  138.5402  159.7654 N.3     1  UNL1       -0.2702
     43 C         143.9368  139.7516  159.2969 C.3     1  UNL1        0.0897
     44 C         142.6190  137.5764  158.7658 C.3     1  UNL1        0.0897
@<TRIPOS>BOND
     1    38    39    1
     2    39    29    1
     3    29    30   ar
     4    30    31   ar
     5    31    26    1
     6    26    27    1
     7    26    40    1
     8    40    41    1
     9    41    42    1
    10    42    43    1
    11    42    44    1
    12    26     1    1
    13     1     2    1
    14     2     3   ar
    15     3     4   ar
    16     4     5   ar
    17     5     6   ar
    18     6    12    1
    19    12    13    3
    20     6     7   ar
    21     7     8   ar
    22     8     9   ar
    23     9    10   ar
    24    10    11   ar
    25    11    14    1
    26    14    15    1
    27     1    16    1
    28    16    17   ar
    29    17    18   ar
    30    18    19   ar
    31    19    20   ar
    32    20    22    1
    33    22    23    1
    34    20    21   ar
    35    21    24    1
    36    24    25    1
    37    31    32   ar
    38    32    33   ar
    39    33    35    1
    40    35    36    1
    41    35    37    1
    42    33    34   ar
    43    34    29   ar
    44    11     2   ar
    45    21    16   ar
    46     9     4   ar
    47    27    28    1
