@<TRIPOS>MOLECULE
*****
 26 27 0 0 0
SMALL
GASTEIGER

@<TRIPOS>ATOM
      1 C         139.4359  140.5096  165.2092 C.1     1  UNL1       -0.0724
      2 C         140.7284  141.0356  165.7595 C.1     1  UNL1       -0.0817
      3 C         138.1434  139.9836  164.6589 C.3     1  UNL1        0.1498
      4 N         137.8285  140.1436  163.2011 N.3     1  UNL1       -0.2618
      5 C         138.1882  139.0563  162.2324 C.3     1  UNL1        0.0730
      6 C         138.7311  137.7520  162.7366 C.3     1  UNL1        0.0188
      7 C         137.1539  141.3909  162.7120 C.3     1  UNL1        0.0730
      8 C         137.9662  142.6175  162.4194 C.3     1  UNL1        0.0174
      9 C         137.7056  143.8873  163.1740 C.3     1  UNL1        0.0014
     10 C         138.0687  143.9848  164.6262 C.3     1  UNL1        0.0000
     11 C         139.3016  144.7309  165.0425 C.3     1  UNL1        0.0000
     12 C         141.2108  145.1928  163.3420 C.3     1  UNL1        0.0000
     13 C         140.6325  144.3680  164.4535 C.3     1  UNL1        0.0000
     14 C         142.0209  141.5616  166.3097 C.3     1  UNL1        0.1085
     15 C         143.2655  141.5167  165.4736 C.ar    1  UNL1       -0.0064
     16 C         143.9581  142.7908  165.0907 C.ar    1  UNL1       -0.0030
     17 C         145.2027  142.7459  164.2546 C.ar    1  UNL1       -0.0003
     18 C         145.7546  141.4267  163.8016 C.ar    1  UNL1       -0.0000
     19 C         145.0620  140.1526  164.1846 C.ar    1  UNL1       -0.0003
     20 C         143.8174  140.1975  165.0206 C.ar    1  UNL1       -0.0030
     21 C         142.0688  142.1324  167.6960 C.ar    1  UNL1       -0.0064
     22 C         143.3200  142.0111  168.5143 C.ar    1  UNL1       -0.0030
     23 C         143.3679  142.5820  169.9006 C.ar    1  UNL1       -0.0003
     24 C         142.1645  143.2742  170.4686 C.ar    1  UNL1       -0.0000
     25 C         140.9133  143.3956  169.6503 C.ar    1  UNL1       -0.0003
     26 C         140.8654  142.8247  168.2640 C.ar    1  UNL1       -0.0030
@<TRIPOS>BOND
     1    12    13    1
     2    13    11    1
     3    11    10    1
     4    10     9    1
     5     9     8    1
     6     8     7    1
     7     7     4    1
     8     4     5    1
     9     5     6    1
    10     4     3    1
    11     3     1    1
    12     1     2    3
    13     2    14    1
    14    14    15    1
    15    15    16   ar
    16    16    17   ar
    17    17    18   ar
    18    18    19   ar
    19    19    20   ar
    20    14    21    1
    21    21    22   ar
    22    22    23   ar
    23    23    24   ar
    24    24    25   ar
    25    25    26   ar
    26    20    15   ar
    27    26    21   ar
@<TRIPOS>MOLECULE
*****
 26 27 0 0 0
SMALL
GASTEIGER

@<TRIPOS>ATOM
      1 C         140.6315  143.7028  164.7927 C.1     1  UNL1       -0.0724
      2 C         140.4670  142.5476  165.7353 C.1     1  UNL1       -0.0817
      3 C         140.7959  144.8580  163.8501 C.3     1  UNL1        0.1498
      4 N         139.6874  145.2198  162.9066 N.3     1  UNL1       -0.2618
      5 C         139.9727  146.0723  161.7059 C.3     1  UNL1        0.0730
      6 C         140.4256  145.4363  160.4250 C.3     1  UNL1        0.0188
      7 C         138.2934  144.7291  163.1638 C.3     1  UNL1        0.0730
      8 C         137.8441  143.4153  162.5962 C.3     1  UNL1        0.0174
      9 C         137.4679  142.2908  163.5149 C.3     1  UNL1        0.0014
     10 C         137.6633  140.8689  163.0790 C.3     1  UNL1        0.0000
     11 C         139.0002  140.4174  162.5703 C.3     1  UNL1        0.0000
     12 C         137.9944  138.1463  161.8082 C.3     1  UNL1        0.0000
     13 C         139.1125  139.1460  161.7823 C.3     1  UNL1        0.0000
     14 C         140.3026  141.3924  166.6779 C.3     1  UNL1        0.1085
     15 C         140.4463  141.6042  168.1560 C.ar    1  UNL1       -0.0064
     16 C         140.4719  142.9957  168.7153 C.ar    1  UNL1       -0.0030
     17 C         140.6156  143.2074  170.1933 C.ar    1  UNL1       -0.0003
     18 C         140.7336  142.0275  171.1120 C.ar    1  UNL1       -0.0000
     19 C         140.7080  140.6359  170.5526 C.ar    1  UNL1       -0.0003
     20 C         140.5643  140.4243  169.0746 C.ar    1  UNL1       -0.0030
     21 C         139.9946  140.0256  166.1425 C.ar    1  UNL1       -0.0064
     22 C         141.0598  139.2380  165.4389 C.ar    1  UNL1       -0.0030
     23 C         140.7517  137.8711  164.9035 C.ar    1  UNL1       -0.0003
     24 C         139.3784  137.2917  165.0717 C.ar    1  UNL1       -0.0000
     25 C         138.3131  138.0793  165.7752 C.ar    1  UNL1       -0.0003
     26 C         138.6212  139.4461  166.3107 C.ar    1  UNL1       -0.0030
@<TRIPOS>BOND
     1    12    13    1
     2    13    11    1
     3    11    10    1
     4    10     9    1
     5     9     8    1
     6     8     7    1
     7     7     4    1
     8     4     5    1
     9     5     6    1
    10     4     3    1
    11     3     1    1
    12     1     2    3
    13     2    14    1
    14    14    15    1
    15    15    16   ar
    16    16    17   ar
    17    17    18   ar
    18    18    19   ar
    19    19    20   ar
    20    14    21    1
    21    21    22   ar
    22    22    23   ar
    23    23    24   ar
    24    24    25   ar
    25    25    26   ar
    26    20    15   ar
    27    26    21   ar
@<TRIPOS>MOLECULE
*****
 26 27 0 0 0
SMALL
GASTEIGER

@<TRIPOS>ATOM
      1 C         141.5529  143.9636  164.0136 C.1     1  UNL1       -0.0724
      2 C         141.3539  142.9655  165.1155 C.1     1  UNL1       -0.0817
      3 C         141.7519  144.9617  162.9117 C.3     1  UNL1        0.1498
      4 N         140.6322  145.2609  161.9596 N.3     1  UNL1       -0.2618
      5 C         140.8580  145.1585  160.4802 C.3     1  UNL1        0.0730
      6 C         140.4429  143.9204  159.7421 C.3     1  UNL1        0.0188
      7 C         139.2865  145.6626  162.4868 C.3     1  UNL1        0.0730
      8 C         138.2249  144.6250  162.7018 C.3     1  UNL1        0.0174
      9 C         137.8909  144.1706  164.0917 C.3     1  UNL1        0.0014
     10 C         137.7612  142.7065  164.3913 C.3     1  UNL1        0.0000
     11 C         137.3416  141.7542  163.3110 C.3     1  UNL1        0.0000
     12 C         139.6546  141.2104  162.2602 C.3     1  UNL1        0.0000
     13 C         138.3203  140.7538  162.7714 C.3     1  UNL1        0.0000
     14 C         141.1550  141.9674  166.2174 C.3     1  UNL1        0.1085
     15 C         140.5155  140.6428  165.9231 C.ar    1  UNL1       -0.0064
     16 C         141.2387  139.6306  165.0851 C.ar    1  UNL1       -0.0030
     17 C         140.5993  138.3061  164.7908 C.ar    1  UNL1       -0.0003
     18 C         139.2366  137.9938  165.3345 C.ar    1  UNL1       -0.0000
     19 C         138.5134  139.0060  166.1725 C.ar    1  UNL1       -0.0003
     20 C         139.1528  140.3305  166.4668 C.ar    1  UNL1       -0.0030
     21 C         141.5954  142.2939  167.6136 C.ar    1  UNL1       -0.0064
     22 C         142.9885  141.9598  168.0581 C.ar    1  UNL1       -0.0030
     23 C         143.4289  142.2863  169.4544 C.ar    1  UNL1       -0.0003
     24 C         142.4762  142.9469  170.4061 C.ar    1  UNL1       -0.0000
     25 C         141.0830  143.2810  169.9617 C.ar    1  UNL1       -0.0003
     26 C         140.6426  142.9545  168.5655 C.ar    1  UNL1       -0.0030
@<TRIPOS>BOND
     1    12    13    1
     2    13    11    1
     3    11    10    1
     4    10     9    1
     5     9     8    1
     6     8     7    1
     7     7     4    1
     8     4     5    1
     9     5     6    1
    10     4     3    1
    11     3     1    1
    12     1     2    3
    13     2    14    1
    14    14    15    1
    15    15    16   ar
    16    16    17   ar
    17    17    18   ar
    18    18    19   ar
    19    19    20   ar
    20    14    21    1
    21    21    22   ar
    22    22    23   ar
    23    23    24   ar
    24    24    25   ar
    25    25    26   ar
    26    20    15   ar
    27    26    21   ar
@<TRIPOS>MOLECULE
*****
 26 27 0 0 0
SMALL
GASTEIGER

@<TRIPOS>ATOM
      1 C         140.4423  143.0285  168.4699 C.1     1  UNL1       -0.0724
      2 C         140.0570  142.6052  167.0833 C.1     1  UNL1       -0.0817
      3 C         140.8276  143.4517  169.8564 C.3     1  UNL1        0.1498
      4 N         141.8546  142.6703  170.6209 N.3     1  UNL1       -0.2618
      5 C         143.2563  143.1905  170.7411 C.3     1  UNL1        0.0730
      6 C         144.3367  142.6470  169.8536 C.3     1  UNL1        0.0188
      7 C         141.4798  141.3686  171.2653 C.3     1  UNL1        0.0730
      8 C         141.3428  140.1302  170.4301 C.3     1  UNL1        0.0174
      9 C         142.3427  139.8394  169.3504 C.3     1  UNL1        0.0014
     10 C         141.8790  139.5940  167.9451 C.3     1  UNL1        0.0000
     11 C         142.8123  139.8316  166.7952 C.3     1  UNL1        0.0000
     12 C         143.4463  141.5591  164.9610 C.3     1  UNL1        0.0000
     13 C         143.1735  141.2326  166.3995 C.3     1  UNL1        0.0000
     14 C         139.6717  142.1820  165.6968 C.3     1  UNL1        0.1085
     15 C         139.4587  140.7296  165.3880 C.ar    1  UNL1       -0.0064
     16 C         138.5868  139.8937  166.2774 C.ar    1  UNL1       -0.0030
     17 C         138.3738  138.4415  165.9685 C.ar    1  UNL1       -0.0003
     18 C         139.0328  137.8250  164.7702 C.ar    1  UNL1       -0.0000
     19 C         139.9047  138.6609  163.8809 C.ar    1  UNL1       -0.0003
     20 C         140.1177  140.1132  164.1897 C.ar    1  UNL1       -0.0030
     21 C         139.4995  143.2110  164.6192 C.ar    1  UNL1       -0.0064
     22 C         138.1558  143.4143  163.9842 C.ar    1  UNL1       -0.0030
     23 C         137.9836  144.4435  162.9065 C.ar    1  UNL1       -0.0003
     24 C         139.1550  145.2692  162.4638 C.ar    1  UNL1       -0.0000
     25 C         140.4986  145.0658  163.0989 C.ar    1  UNL1       -0.0003
     26 C         140.6709  144.0368  164.1765 C.ar    1  UNL1       -0.0030
@<TRIPOS>BOND
     1    12    13    1
     2    13    11    1
     3    11    10    1
     4    10     9    1
     5     9     8    1
     6     8     7    1
     7     7     4    1
     8     4     5    1
     9     5     6    1
    10     4     3    1
    11     3     1    1
    12     1     2    3
    13     2    14    1
    14    14    15    1
    15    15    16   ar
    16    16    17   ar
    17    17    18   ar
    18    18    19   ar
    19    19    20   ar
    20    14    21    1
    21    21    22   ar
    22    22    23   ar
    23    23    24   ar
    24    24    25   ar
    25    25    26   ar
    26    20    15   ar
    27    26    21   ar
@<TRIPOS>MOLECULE
*****
 26 27 0 0 0
SMALL
GASTEIGER

@<TRIPOS>ATOM
      1 C         138.4173  141.2179  164.0335 C.1     1  UNL1       -0.0724
      2 C         139.4792  141.0669  165.0821 C.1     1  UNL1       -0.0817
      3 C         137.3554  141.3690  162.9849 C.3     1  UNL1        0.1498
      4 N         137.6527  141.0100  161.5592 N.3     1  UNL1       -0.2618
      5 C         138.2926  142.0170  160.6500 C.3     1  UNL1        0.0730
      6 C         138.7017  141.6212  159.2622 C.3     1  UNL1        0.0188
      7 C         137.3102  139.6440  161.0426 C.3     1  UNL1        0.0730
      8 C         138.0409  138.4411  161.5612 C.3     1  UNL1        0.0174
      9 C         139.4988  138.2608  161.2581 C.3     1  UNL1        0.0014
     10 C         140.5332  138.7909  162.2064 C.3     1  UNL1        0.0000
     11 C         141.4267  137.8418  162.9487 C.3     1  UNL1        0.0000
     12 C         139.6500  137.4449  164.8023 C.3     1  UNL1        0.0000
     13 C         140.8677  136.9930  164.0518 C.3     1  UNL1        0.0000
     14 C         140.5411  140.9158  166.1306 C.3     1  UNL1        0.1085
     15 C         140.2818  141.3806  167.5331 C.ar    1  UNL1       -0.0064
     16 C         139.6409  140.4543  168.5237 C.ar    1  UNL1       -0.0030
     17 C         139.3816  140.9191  169.9261 C.ar    1  UNL1       -0.0003
     18 C         139.7631  142.3101  170.3379 C.ar    1  UNL1       -0.0000
     19 C         140.4040  143.2363  169.3473 C.ar    1  UNL1       -0.0003
     20 C         140.6633  142.7716  167.9449 C.ar    1  UNL1       -0.0030
     21 C         141.8623  140.3001  165.7768 C.ar    1  UNL1       -0.0064
     22 C         142.6752  140.8648  164.6497 C.ar    1  UNL1       -0.0030
     23 C         143.9964  140.2490  164.2959 C.ar    1  UNL1       -0.0003
     24 C         144.5048  139.0685  165.0692 C.ar    1  UNL1       -0.0000
     25 C         143.6919  138.5038  166.1963 C.ar    1  UNL1       -0.0003
     26 C         142.3707  139.1195  166.5501 C.ar    1  UNL1       -0.0030
@<TRIPOS>BOND
     1    12    13    1
     2    13    11    1
     3    11    10    1
     4    10     9    1
     5     9     8    1
     6     8     7    1
     7     7     4    1
     8     4     5    1
     9     5     6    1
    10     4     3    1
    11     3     1    1
    12     1     2    3
    13     2    14    1
    14    14    15    1
    15    15    16   ar
    16    16    17   ar
    17    17    18   ar
    18    18    19   ar
    19    19    20   ar
    20    14    21    1
    21    21    22   ar
    22    22    23   ar
    23    23    24   ar
    24    24    25   ar
    25    25    26   ar
    26    20    15   ar
    27    26    21   ar
@<TRIPOS>MOLECULE
*****
 26 27 0 0 0
SMALL
GASTEIGER

@<TRIPOS>ATOM
      1 C         139.4702  140.4656  165.2704 C.1     1  UNL1       -0.0724
      2 C         140.7647  140.9952  165.8124 C.1     1  UNL1       -0.0817
      3 C         138.1756  139.9360  164.7285 C.3     1  UNL1        0.1498
      4 N         137.7520  140.2776  163.3307 N.3     1  UNL1       -0.2618
      5 C         137.9157  139.2714  162.2304 C.3     1  UNL1        0.0730
      6 C         138.5917  137.9611  162.5067 C.3     1  UNL1        0.0188
      7 C         137.1647  141.6255  163.0332 C.3     1  UNL1        0.0730
      8 C         138.0183  142.8547  163.1355 C.3     1  UNL1        0.0174
      9 C         137.6431  143.9510  164.0879 C.3     1  UNL1        0.0014
     10 C         138.7063  144.6535  164.8794 C.3     1  UNL1        0.0000
     11 C         140.1342  144.2049  164.7809 C.3     1  UNL1        0.0000
     12 C         142.1716  145.4559  163.7641 C.3     1  UNL1        0.0000
     13 C         140.9603  144.5885  163.5892 C.3     1  UNL1        0.0000
     14 C         142.0593  141.5247  166.3543 C.3     1  UNL1        0.1085
     15 C         142.1124  142.1045  167.7368 C.ar    1  UNL1       -0.0064
     16 C         140.9067  142.7882  168.3102 C.ar    1  UNL1       -0.0030
     17 C         140.9598  143.3679  169.6926 C.ar    1  UNL1       -0.0003
     18 C         142.2187  143.2639  170.5016 C.ar    1  UNL1       -0.0000
     19 C         143.4244  142.5802  169.9282 C.ar    1  UNL1       -0.0003
     20 C         143.3712  142.0005  168.5458 C.ar    1  UNL1       -0.0030
     21 C         143.3007  141.4746  165.5139 C.ar    1  UNL1       -0.0064
     22 C         144.0096  142.7444  165.1467 C.ar    1  UNL1       -0.0030
     23 C         145.2510  142.6942  164.3062 C.ar    1  UNL1       -0.0003
     24 C         145.7835  141.3742  163.8330 C.ar    1  UNL1       -0.0000
     25 C         145.0746  140.1043  164.2002 C.ar    1  UNL1       -0.0003
     26 C         143.8332  140.1545  165.0407 C.ar    1  UNL1       -0.0030
@<TRIPOS>BOND
     1    12    13    1
     2    13    11    1
     3    11    10    1
     4    10     9    1
     5     9     8    1
     6     8     7    1
     7     7     4    1
     8     4     5    1
     9     5     6    1
    10     4     3    1
    11     3     1    1
    12     1     2    3
    13     2    14    1
    14    14    15    1
    15    15    16   ar
    16    16    17   ar
    17    17    18   ar
    18    18    19   ar
    19    19    20   ar
    20    14    21    1
    21    21    22   ar
    22    22    23   ar
    23    23    24   ar
    24    24    25   ar
    25    25    26   ar
    26    20    15   ar
    27    26    21   ar
@<TRIPOS>MOLECULE
*****
 26 27 0 0 0
SMALL
GASTEIGER

@<TRIPOS>ATOM
      1 C         141.9092  142.8415  163.3909 C.1     1  UNL1       -0.0724
      2 C         141.4728  142.1138  164.6278 C.1     1  UNL1       -0.0817
      3 C         142.3457  143.5692  162.1539 C.3     1  UNL1        0.1498
      4 N         141.4141  144.5353  161.4841 N.3     1  UNL1       -0.2618
      5 C         141.2289  144.4895  159.9962 C.3     1  UNL1        0.0730
      6 C         139.9899  143.8771  159.4131 C.3     1  UNL1        0.0188
      7 C         140.6676  145.5471  162.3020 C.3     1  UNL1        0.0730
      8 C         139.2897  145.2351  162.8059 C.3     1  UNL1        0.0174
      9 C         139.0854  144.8496  164.2410 C.3     1  UNL1        0.0014
     10 C         137.8343  144.1325  164.6542 C.3     1  UNL1        0.0000
     11 C         137.7565  142.6383  164.5483 C.3     1  UNL1        0.0000
     12 C         137.9706  140.6451  162.8956 C.3     1  UNL1        0.0000
     13 C         137.4150  141.9962  163.2365 C.3     1  UNL1        0.0000
     14 C         141.0363  141.3861  165.8647 C.3     1  UNL1        0.1085
     15 C         141.3797  141.9345  167.2180 C.ar    1  UNL1       -0.0064
     16 C         140.3748  142.7537  167.9723 C.ar    1  UNL1       -0.0030
     17 C         140.7182  143.3021  169.3256 C.ar    1  UNL1       -0.0003
     18 C         142.0665  143.0312  169.9245 C.ar    1  UNL1       -0.0000
     19 C         143.0714  142.2120  169.1702 C.ar    1  UNL1       -0.0003
     20 C         142.7280  141.6637  167.8170 C.ar    1  UNL1       -0.0030
     21 C         140.2566  140.1100  165.7483 C.ar    1  UNL1       -0.0064
     22 C         138.9797  139.9386  166.5165 C.ar    1  UNL1       -0.0030
     23 C         138.1999  138.6625  166.4001 C.ar    1  UNL1       -0.0003
     24 C         138.6970  137.5578  165.5156 C.ar    1  UNL1       -0.0000
     25 C         139.9739  137.7292  164.7473 C.ar    1  UNL1       -0.0003
     26 C         140.7537  139.0053  164.8637 C.ar    1  UNL1       -0.0030
@<TRIPOS>BOND
     1    12    13    1
     2    13    11    1
     3    11    10    1
     4    10     9    1
     5     9     8    1
     6     8     7    1
     7     7     4    1
     8     4     5    1
     9     5     6    1
    10     4     3    1
    11     3     1    1
    12     1     2    3
    13     2    14    1
    14    14    15    1
    15    15    16   ar
    16    16    17   ar
    17    17    18   ar
    18    18    19   ar
    19    19    20   ar
    20    14    21    1
    21    21    22   ar
    22    22    23   ar
    23    23    24   ar
    24    24    25   ar
    25    25    26   ar
    26    20    15   ar
    27    26    21   ar
@<TRIPOS>MOLECULE
*****
 26 27 0 0 0
SMALL
GASTEIGER

@<TRIPOS>ATOM
      1 C         138.4342  141.3312  164.0660 C.1     1  UNL1       -0.0724
      2 C         139.4852  141.1418  165.1193 C.1     1  UNL1       -0.0817
      3 C         137.3831  141.5205  163.0127 C.3     1  UNL1        0.1498
      4 N         137.6972  141.2197  161.5772 N.3     1  UNL1       -0.2618
      5 C         138.2860  142.2841  160.6993 C.3     1  UNL1        0.0730
      6 C         138.5104  142.0140  159.2409 C.3     1  UNL1        0.0188
      7 C         137.4226  139.8546  161.0194 C.3     1  UNL1        0.0730
      8 C         138.1928  138.6699  161.5227 C.3     1  UNL1        0.0174
      9 C         139.6443  138.5171  161.1769 C.3     1  UNL1        0.0014
     10 C         140.6975  138.9772  162.1409 C.3     1  UNL1        0.0000
     11 C         141.5028  137.9710  162.9084 C.3     1  UNL1        0.0000
     12 C         139.7114  137.4999  164.7302 C.3     1  UNL1        0.0000
     13 C         140.8180  137.0161  163.8406 C.3     1  UNL1        0.0000
     14 C         140.5363  140.9525  166.1726 C.3     1  UNL1        0.1085
     15 C         141.8525  140.3282  165.8150 C.ar    1  UNL1       -0.0064
     16 C         142.6910  140.9205  164.7214 C.ar    1  UNL1       -0.0030
     17 C         144.0072  140.2963  164.3638 C.ar    1  UNL1       -0.0003
     18 C         144.4850  139.0798  165.1000 C.ar    1  UNL1       -0.0000
     19 C         143.6465  138.4875  166.1936 C.ar    1  UNL1       -0.0003
     20 C         142.3303  139.1117  166.5512 C.ar    1  UNL1       -0.0030
     21 C         140.2711  141.3873  167.5835 C.ar    1  UNL1       -0.0064
     22 C         139.6078  140.4472  168.5460 C.ar    1  UNL1       -0.0030
     23 C         139.3426  140.8822  169.9569 C.ar    1  UNL1       -0.0003
     24 C         139.7407  142.2571  170.4053 C.ar    1  UNL1       -0.0000
     25 C         140.4040  143.1971  169.4428 C.ar    1  UNL1       -0.0003
     26 C         140.6692  142.7623  168.0319 C.ar    1  UNL1       -0.0030
@<TRIPOS>BOND
     1    12    13    1
     2    13    11    1
     3    11    10    1
     4    10     9    1
     5     9     8    1
     6     8     7    1
     7     7     4    1
     8     4     5    1
     9     5     6    1
    10     4     3    1
    11     3     1    1
    12     1     2    3
    13     2    14    1
    14    14    15    1
    15    15    16   ar
    16    16    17   ar
    17    17    18   ar
    18    18    19   ar
    19    19    20   ar
    20    14    21    1
    21    21    22   ar
    22    22    23   ar
    23    23    24   ar
    24    24    25   ar
    25    25    26   ar
    26    20    15   ar
    27    26    21   ar
@<TRIPOS>MOLECULE
*****
 26 27 0 0 0
SMALL
GASTEIGER

@<TRIPOS>ATOM
      1 C         141.8049  143.7618  164.0191 C.1     1  UNL1       -0.0724
      2 C         141.3970  142.9487  165.2117 C.1     1  UNL1       -0.0817
      3 C         142.2128  144.5750  162.8264 C.3     1  UNL1        0.1498
      4 N         143.0936  143.9714  161.7729 N.3     1  UNL1       -0.2618
      5 C         142.5580  143.7369  160.3916 C.3     1  UNL1        0.0730
      6 C         141.4030  142.8025  160.1836 C.3     1  UNL1        0.0188
      7 C         144.5101  143.6024  162.1007 C.3     1  UNL1        0.0730
      8 C         144.8602  142.1785  162.4169 C.3     1  UNL1        0.0174
      9 C         145.3099  141.8058  163.7984 C.3     1  UNL1        0.0014
     10 C         144.4307  140.9594  164.6706 C.3     1  UNL1        0.0000
     11 C         143.3315  140.1421  164.0593 C.3     1  UNL1        0.0000
     12 C         142.9737  138.7961  166.2525 C.3     1  UNL1        0.0000
     13 C         142.8248  138.9193  164.7650 C.3     1  UNL1        0.0000
     14 C         140.9891  142.1356  166.4044 C.3     1  UNL1        0.1085
     15 C         141.5628  142.4456  167.7552 C.ar    1  UNL1       -0.0064
     16 C         140.7292  143.1582  168.7786 C.ar    1  UNL1       -0.0030
     17 C         141.3029  143.4682  170.1294 C.ar    1  UNL1       -0.0003
     18 C         142.7103  143.0656  170.4568 C.ar    1  UNL1       -0.0000
     19 C         143.5439  142.3530  169.4335 C.ar    1  UNL1       -0.0003
     20 C         142.9702  142.0430  168.0827 C.ar    1  UNL1       -0.0030
     21 C         140.0075  141.0125  166.2462 C.ar    1  UNL1       -0.0064
     22 C         139.5564  140.2359  167.4476 C.ar    1  UNL1       -0.0030
     23 C         138.5747  139.1127  167.2894 C.ar    1  UNL1       -0.0003
     24 C         138.0442  138.7662  165.9298 C.ar    1  UNL1       -0.0000
     25 C         138.4953  139.5428  164.7284 C.ar    1  UNL1       -0.0003
     26 C         139.4769  140.6659  164.8866 C.ar    1  UNL1       -0.0030
@<TRIPOS>BOND
     1    12    13    1
     2    13    11    1
     3    11    10    1
     4    10     9    1
     5     9     8    1
     6     8     7    1
     7     7     4    1
     8     4     5    1
     9     5     6    1
    10     4     3    1
    11     3     1    1
    12     1     2    3
    13     2    14    1
    14    14    15    1
    15    15    16   ar
    16    16    17   ar
    17    17    18   ar
    18    18    19   ar
    19    19    20   ar
    20    14    21    1
    21    21    22   ar
    22    22    23   ar
    23    23    24   ar
    24    24    25   ar
    25    25    26   ar
    26    20    15   ar
    27    26    21   ar
