@<TRIPOS>MOLECULE
*****
 32 36 0 0 0
SMALL
GASTEIGER

@<TRIPOS>ATOM
      1 C         143.6542  142.8328  160.3655 C.3     1  UNL1        0.2120
      2 O         145.0103  142.4403  160.8724 O.3     1  UNL1       -0.4344
      3 C         144.8966  142.1776  162.3448 C.2     1  UNL1        0.4089
      4 O         146.0132  141.7584  163.2544 O.2     1  UNL1       -0.2258
      5 N         143.4703  142.4078  162.7479 N.am    1  UNL1       -0.2164
      6 C         142.7715  142.3010  164.0710 C.ar    1  UNL1        0.0911
      7 C         143.5394  141.8961  165.2942 C.ar    1  UNL1        0.0194
      8 C         142.8405  141.7893  166.6171 C.ar    1  UNL1        0.0164
      9 C         141.3739  142.0874  166.7168 C.ar    1  UNL1        0.0571
     10 C         140.6060  142.4923  165.4936 C.ar    1  UNL1        0.0531
     11 C         141.3048  142.5991  164.1707 C.ar    1  UNL1        0.1535
     12 O         140.5369  143.0041  162.9473 O.3     1  UNL1       -0.4722
     13 C         141.2357  143.1109  161.6244 C.3     1  UNL1        0.2293
     14 C         142.7024  142.8127  161.5247 C.3     1  UNL1        0.1682
     15 N         140.6750  141.9806  168.0399 N.am    1  UNL1       -0.2539
     16 C         140.7112  143.1306  169.0022 C.3     1  UNL1        0.1303
     17 C         140.0124  143.0238  170.3252 C.3     1  UNL1        0.1646
     18 O         139.2774  141.7669  170.6858 O.3     1  UNL1       -0.3426
     19 C         139.2413  140.6169  169.7234 C.3     1  UNL1        0.2275
     20 C         139.9401  140.7237  168.4005 C.2     1  UNL1        0.2596
     21 O         139.9039  139.5737  167.4381 O.2     1  UNL1       -0.2718
     22 C         143.3102  143.1838  158.9482 C.3     1  UNL1        0.1355
     23 O         144.4774  140.6037  157.9582 O.2     1  UNL1       -0.2696
     24 C         144.9650  141.9092  157.4033 C.2     1  UNL1        0.2520
     25 N         144.3814  143.1993  157.8984 N.am    1  UNL1       -0.2971
     26 H         144.7014  144.0561  157.5342 H       1  UNL1        0.1499
     27 C         146.0362  141.9245  156.3534 C.ar    1  UNL1        0.0836
     28 C         147.4328  142.4438  156.5263 C.ar    1  UNL1        0.0124
     29 C         148.1586  142.2636  155.2261 C.ar    1  UNL1        0.0186
     30 C         147.2106  141.6329  154.2495 C.ar    1  UNL1        0.0871
     31 CL        147.5201  141.2746  152.8262 Cl      1  UNL1       -0.0752
     32 S         145.8989  141.4234  154.9464 S.2     1  UNL1       -0.0710
@<TRIPOS>BOND
     1    23    24    2
     2    24    25   am
     3    25    22    1
     4     1    22    1
     5     1     2    1
     6     2     3    1
     7     3     4    2
     8     3     5   am
     9     5     6    1
    10     6     7   ar
    11     7     8   ar
    12     8     9   ar
    13     9    15    1
    14    15    16    1
    15    16    17    1
    16    17    18    1
    17    18    19    1
    18    19    20    1
    19    20    21    2
    20     9    10   ar
    21    10    11   ar
    22    11    12    1
    23    12    13    1
    24    14    13    1
    25    24    27    1
    26    27    28   ar
    27    28    29   ar
    28    29    30   ar
    29    30    31    1
    30    30    32   ar
    31    14     1    1
    32    32    27   ar
    33    14     5    1
    34    11     6   ar
    35    20    15   am
    36    25    26    1
@<TRIPOS>MOLECULE
*****
 32 36 0 0 0
SMALL
GASTEIGER

@<TRIPOS>ATOM
      1 C         142.2651  138.1258  161.4093 C.3     1  UNL1        0.2120
      2 O         140.8530  137.6234  161.3510 O.3     1  UNL1       -0.4344
      3 C         140.1824  137.9740  162.6462 C.2     1  UNL1        0.4089
      4 O         138.7633  137.6605  163.0174 O.2     1  UNL1       -0.2258
      5 N         141.1802  138.6929  163.5049 N.am    1  UNL1       -0.2164
      6 C         141.0829  139.2743  164.8843 C.ar    1  UNL1        0.0911
      7 C         139.7958  139.1805  165.6487 C.ar    1  UNL1        0.0194
      8 C         139.6985  139.7618  167.0280 C.ar    1  UNL1        0.0164
      9 C         140.8885  140.4371  167.6429 C.ar    1  UNL1        0.0571
     10 C         142.1757  140.5309  166.8785 C.ar    1  UNL1        0.0531
     11 C         142.2729  139.9496  165.4992 C.ar    1  UNL1        0.1535
     12 O         143.5601  140.0434  164.7347 O.3     1  UNL1       -0.4722
     13 C         143.6573  139.4620  163.3554 C.3     1  UNL1        0.2293
     14 C         142.4674  138.7868  162.7405 C.3     1  UNL1        0.1682
     15 N         140.7912  141.0185  169.0223 N.am    1  UNL1       -0.2539
     16 C         140.0548  142.3064  169.2431 C.3     1  UNL1        0.1303
     17 C         139.9575  142.8878  170.6225 C.3     1  UNL1        0.1646
     18 O         140.5967  142.1812  171.7810 O.3     1  UNL1       -0.3426
     19 C         141.3331  140.8931  171.5601 C.3     1  UNL1        0.2275
     20 C         141.4304  140.3118  170.1808 C.2     1  UNL1        0.2596
     21 O         142.1668  139.0238  169.9599 O.2     1  UNL1       -0.2718
     22 C         143.2944  137.9909  160.3265 C.3     1  UNL1        0.1355
     23 O         142.2808  138.7690  157.6123 O.2     1  UNL1       -0.2696
     24 C         142.6224  137.3377  157.9033 C.2     1  UNL1        0.2520
     25 N         143.1292  136.9487  159.2605 N.am    1  UNL1       -0.2971
     26 H         143.3535  136.0093  159.4516 H       1  UNL1        0.1499
     27 C         142.4572  136.2955  156.8372 C.ar    1  UNL1        0.0836
     28 C         141.4554  136.3269  155.7213 C.ar    1  UNL1        0.0124
     29 C         141.6438  135.0898  154.8943 C.ar    1  UNL1        0.0186
     30 C         142.7621  134.2937  155.4991 C.ar    1  UNL1        0.0871
     31 CL        143.2858  132.9827  154.9921 Cl      1  UNL1       -0.0752
     32 S         143.2648  135.0390  156.6999 S.2     1  UNL1       -0.0710
@<TRIPOS>BOND
     1    23    24    2
     2    24    25   am
     3    25    22    1
     4     1    22    1
     5     1     2    1
     6     2     3    1
     7     3     4    2
     8     3     5   am
     9     5     6    1
    10     6     7   ar
    11     7     8   ar
    12     8     9   ar
    13     9    15    1
    14    15    16    1
    15    16    17    1
    16    17    18    1
    17    18    19    1
    18    19    20    1
    19    20    21    2
    20     9    10   ar
    21    10    11   ar
    22    11    12    1
    23    12    13    1
    24    14    13    1
    25    24    27    1
    26    27    28   ar
    27    28    29   ar
    28    29    30   ar
    29    30    31    1
    30    30    32   ar
    31    14     1    1
    32    32    27   ar
    33    14     5    1
    34    11     6   ar
    35    20    15   am
    36    25    26    1
@<TRIPOS>MOLECULE
*****
 32 36 0 0 0
SMALL
GASTEIGER

@<TRIPOS>ATOM
      1 C         140.9864  144.5335  160.1290 C.3     1  UNL1        0.2120
      2 O         139.6164  144.9935  160.5305 O.3     1  UNL1       -0.4344
      3 C         139.4078  144.6272  161.9701 C.2     1  UNL1        0.4089
      4 O         138.1746  144.8995  162.7794 O.2     1  UNL1       -0.2258
      5 N         140.6490  143.9408  162.4582 N.am    1  UNL1       -0.2164
      6 C         141.0168  143.3610  163.7919 C.ar    1  UNL1        0.0911
      7 C         140.0411  143.4189  164.9297 C.ar    1  UNL1        0.0194
      8 C         140.4089  142.8392  166.2633 C.ar    1  UNL1        0.0164
      9 C         141.7525  142.2015  166.4591 C.ar    1  UNL1        0.0571
     10 C         142.7281  142.1435  165.3213 C.ar    1  UNL1        0.0531
     11 C         142.3603  142.7233  163.9877 C.ar    1  UNL1        0.1535
     12 O         143.3360  142.6654  162.8498 O.3     1  UNL1       -0.4722
     13 C         142.9681  143.2451  161.5162 C.3     1  UNL1        0.2293
     14 C         141.6246  143.8828  161.3204 C.3     1  UNL1        0.1682
     15 N         142.1203  141.6217  167.7928 N.am    1  UNL1       -0.2539
     16 C         143.1116  142.3274  168.6697 C.3     1  UNL1        0.1303
     17 C         143.4794  141.7476  170.0034 C.3     1  UNL1        0.1646
     18 O         142.8558  140.4621  170.4600 O.3     1  UNL1       -0.3426
     19 C         141.8644  139.7563  169.5830 C.3     1  UNL1        0.2275
     20 C         141.4967  140.3361  168.2494 C.2     1  UNL1        0.2596
     21 O         140.5053  139.6304  167.3723 O.2     1  UNL1       -0.2718
     22 C         141.6091  144.6956  158.7739 C.3     1  UNL1        0.1355
     23 O         139.3813  144.4917  156.7752 O.2     1  UNL1       -0.2696
     24 C         140.1409  145.7767  156.9231 C.2     1  UNL1        0.2520
     25 N         141.2548  145.8785  157.9225 N.am    1  UNL1       -0.2971
     26 H         141.7534  146.7219  158.0197 H       1  UNL1        0.1499
     27 C         139.7866  146.9597  156.0716 C.ar    1  UNL1        0.0836
     28 C         138.9048  148.1040  156.4753 C.ar    1  UNL1        0.0124
     29 C         138.8250  149.0576  155.3202 C.ar    1  UNL1        0.0186
     30 C         139.6575  148.5026  154.2026 C.ar    1  UNL1        0.0871
     31 CL        139.8602  149.1334  152.8569 Cl      1  UNL1       -0.0752
     32 S         140.2518  147.2060  154.6671 S.2     1  UNL1       -0.0710
@<TRIPOS>BOND
     1    23    24    2
     2    24    25   am
     3    25    22    1
     4     1    22    1
     5     1     2    1
     6     2     3    1
     7     3     4    2
     8     3     5   am
     9     5     6    1
    10     6     7   ar
    11     7     8   ar
    12     8     9   ar
    13     9    15    1
    14    15    16    1
    15    16    17    1
    16    17    18    1
    17    18    19    1
    18    19    20    1
    19    20    21    2
    20     9    10   ar
    21    10    11   ar
    22    11    12    1
    23    12    13    1
    24    14    13    1
    25    24    27    1
    26    27    28   ar
    27    28    29   ar
    28    29    30   ar
    29    30    31    1
    30    30    32   ar
    31    14     1    1
    32    32    27   ar
    33    14     5    1
    34    11     6   ar
    35    20    15   am
    36    25    26    1
@<TRIPOS>MOLECULE
*****
 32 36 0 0 0
SMALL
GASTEIGER

@<TRIPOS>ATOM
      1 C         141.5677  144.6646  161.1282 C.3     1  UNL1        0.2120
      2 O         143.0117  144.2631  161.0685 O.3     1  UNL1       -0.4344
      3 C         143.3775  143.6508  162.3881 C.2     1  UNL1        0.4089
      4 O         144.7247  143.1103  162.7660 O.2     1  UNL1       -0.2258
      5 N         142.1596  143.6740  163.2633 N.am    1  UNL1       -0.2164
      6 C         141.9246  143.2055  164.6688 C.ar    1  UNL1        0.0911
      7 C         143.0432  142.5790  165.4474 C.ar    1  UNL1        0.0194
      8 C         142.8082  142.1105  166.8528 C.ar    1  UNL1        0.0164
      9 C         141.4546  142.2686  167.4797 C.ar    1  UNL1        0.0571
     10 C         140.3361  142.8952  166.7011 C.ar    1  UNL1        0.0531
     11 C         140.5711  143.3636  165.2957 C.ar    1  UNL1        0.1535
     12 O         139.4525  143.9902  164.5170 O.3     1  UNL1       -0.4722
     13 C         139.6875  144.4587  163.1116 C.3     1  UNL1        0.2293
     14 C         141.0411  144.3006  162.4847 C.3     1  UNL1        0.1682
     15 N         141.2197  141.8001  168.8852 N.am    1  UNL1       -0.2539
     16 C         141.8516  142.5285  170.0341 C.3     1  UNL1        0.1303
     17 C         141.6166  142.0600  171.4396 C.3     1  UNL1        0.1646
     18 O         140.7497  140.8631  171.6961 O.3     1  UNL1       -0.3426
     19 C         140.1178  140.1346  170.5471 C.3     1  UNL1        0.2275
     20 C         140.3528  140.6031  169.1417 C.2     1  UNL1        0.2596
     21 O         139.7208  139.8747  167.9927 O.2     1  UNL1       -0.2718
     22 C         140.7872  145.3160  160.0251 C.3     1  UNL1        0.1355
     23 O         141.3745  143.3990  157.7935 O.2     1  UNL1       -0.2696
     24 C         139.9601  143.6149  158.2440 C.2     1  UNL1        0.2520
     25 N         139.6665  144.5735  159.3598 N.am    1  UNL1       -0.2971
     26 H         138.7383  144.7152  159.6556 H       1  UNL1        0.1499
     27 C         138.8394  142.8724  157.5787 C.ar    1  UNL1        0.0836
     28 C         138.2503  141.5709  158.0359 C.ar    1  UNL1        0.0124
     29 C         137.1579  141.1951  157.0792 C.ar    1  UNL1        0.0186
     30 C         137.0718  142.2643  156.0306 C.ar    1  UNL1        0.0871
     31 CL        136.1146  142.2920  154.8761 Cl      1  UNL1       -0.0752
     32 S         138.1111  143.3009  156.3394 S.2     1  UNL1       -0.0710
@<TRIPOS>BOND
     1    23    24    2
     2    24    25   am
     3    25    22    1
     4     1    22    1
     5     1     2    1
     6     2     3    1
     7     3     4    2
     8     3     5   am
     9     5     6    1
    10     6     7   ar
    11     7     8   ar
    12     8     9   ar
    13     9    15    1
    14    15    16    1
    15    16    17    1
    16    17    18    1
    17    18    19    1
    18    19    20    1
    19    20    21    2
    20     9    10   ar
    21    10    11   ar
    22    11    12    1
    23    12    13    1
    24    14    13    1
    25    24    27    1
    26    27    28   ar
    27    28    29   ar
    28    29    30   ar
    29    30    31    1
    30    30    32   ar
    31    14     1    1
    32    32    27   ar
    33    14     5    1
    34    11     6   ar
    35    20    15   am
    36    25    26    1
@<TRIPOS>MOLECULE
*****
 32 36 0 0 0
SMALL
GASTEIGER

@<TRIPOS>ATOM
      1 C         143.7325  138.8188  161.5985 C.3     1  UNL1        0.2120
      2 O         144.5489  140.0635  161.4134 O.3     1  UNL1       -0.4344
      3 C         144.4015  140.9025  162.6481 C.2     1  UNL1        0.4089
      4 O         145.0481  142.2338  162.8918 O.2     1  UNL1       -0.2258
      5 N         143.4939  140.1763  163.5962 N.am    1  UNL1       -0.2164
      6 C         142.9906  140.5214  164.9665 C.ar    1  UNL1        0.0911
      7 C         143.4040  141.8091  165.6151 C.ar    1  UNL1        0.0194
      8 C         142.9007  142.1541  166.9854 C.ar    1  UNL1        0.0164
      9 C         141.9839  141.2114  167.7070 C.ar    1  UNL1        0.0571
     10 C         141.5704  139.9236  167.0583 C.ar    1  UNL1        0.0531
     11 C         142.0737  139.5786  165.6881 C.ar    1  UNL1        0.1535
     12 O         141.6603  138.2909  165.0394 O.3     1  UNL1       -0.4722
     13 C         142.1636  137.9459  163.6692 C.3     1  UNL1        0.2293
     14 C         143.0805  138.8886  162.9476 C.3     1  UNL1        0.1682
     15 N         141.4805  141.5564  169.0773 N.am    1  UNL1       -0.2539
     16 C         140.3756  142.5577  169.2403 C.3     1  UNL1        0.1303
     17 C         139.8722  142.9028  170.6106 C.3     1  UNL1        0.1646
     18 O         140.4739  142.2465  171.8178 O.3     1  UNL1       -0.3426
     19 C         141.5788  141.2452  171.6547 C.3     1  UNL1        0.2275
     20 C         142.0821  140.9002  170.2845 C.2     1  UNL1        0.2596
     21 O         143.1871  139.8989  170.1214 O.2     1  UNL1       -0.2718
     22 C         143.5926  137.7007  160.6084 C.3     1  UNL1        0.1355
     23 O         144.0623  139.4530  158.2192 O.2     1  UNL1       -0.2696
     24 C         142.7939  138.6599  158.3298 C.2     1  UNL1        0.2520
     25 N         142.5591  137.7837  159.5245 N.am    1  UNL1       -0.2971
     26 H         141.7267  137.2632  159.5972 H       1  UNL1        0.1499
     27 C         141.7604  138.7430  157.2459 C.ar    1  UNL1        0.0836
     28 C         141.6477  139.8282  156.2165 C.ar    1  UNL1        0.0124
     29 C         140.4759  139.5114  155.3354 C.ar    1  UNL1        0.0186
     30 C         139.8643  138.2304  155.8203 C.ar    1  UNL1        0.0871
     31 CL        138.6687  137.5447  155.2283 Cl      1  UNL1       -0.0752
     32 S         140.6583  137.7556  157.0010 S.2     1  UNL1       -0.0710
@<TRIPOS>BOND
     1    23    24    2
     2    24    25   am
     3    25    22    1
     4     1    22    1
     5     1     2    1
     6     2     3    1
     7     3     4    2
     8     3     5   am
     9     5     6    1
    10     6     7   ar
    11     7     8   ar
    12     8     9   ar
    13     9    15    1
    14    15    16    1
    15    16    17    1
    16    17    18    1
    17    18    19    1
    18    19    20    1
    19    20    21    2
    20     9    10   ar
    21    10    11   ar
    22    11    12    1
    23    12    13    1
    24    14    13    1
    25    24    27    1
    26    27    28   ar
    27    28    29   ar
    28    29    30   ar
    29    30    31    1
    30    30    32   ar
    31    14     1    1
    32    32    27   ar
    33    14     5    1
    34    11     6   ar
    35    20    15   am
    36    25    26    1
@<TRIPOS>MOLECULE
*****
 32 36 0 0 0
SMALL
GASTEIGER

@<TRIPOS>ATOM
      1 C         138.3130  139.1254  161.4339 C.3     1  UNL1        0.2120
      2 O         139.2690  137.9696  161.4197 O.3     1  UNL1       -0.4344
      3 C         140.0552  138.0026  162.6967 C.2     1  UNL1        0.4089
      4 O         141.1239  137.0302  163.0996 O.2     1  UNL1       -0.2258
      5 N         139.5850  139.1788  163.5002 N.am    1  UNL1       -0.2164
      6 C         139.9983  139.7076  164.8417 C.ar    1  UNL1        0.0911
      7 C         141.0750  139.0137  165.6221 C.ar    1  UNL1        0.0194
      8 C         141.4882  139.5425  166.9636 C.ar    1  UNL1        0.0164
      9 C         140.8247  140.7652  167.5246 C.ar    1  UNL1        0.0571
     10 C         139.7480  141.4591  166.7442 C.ar    1  UNL1        0.0531
     11 C         139.3348  140.9303  165.4027 C.ar    1  UNL1        0.1535
     12 O         138.2580  141.6242  164.6222 O.3     1  UNL1       -0.4722
     13 C         137.8448  141.0954  163.2808 C.3     1  UNL1        0.2293
     14 C         138.5083  139.8727  162.7197 C.3     1  UNL1        0.1682
     15 N         141.2380  141.2940  168.8662 N.am    1  UNL1       -0.2539
     16 C         142.2910  142.3580  168.9610 C.3     1  UNL1        0.1303
     17 C         142.7043  142.8868  170.3025 C.3     1  UNL1        0.1646
     18 O         142.0645  142.3515  171.5492 O.3     1  UNL1       -0.3426
     19 C         141.0115  141.2874  171.4543 C.3     1  UNL1        0.2275
     20 C         140.5983  140.7587  170.1128 C.2     1  UNL1        0.2596
     21 O         139.5453  139.6946  170.0180 O.2     1  UNL1       -0.2718
     22 C         137.3335  139.4729  160.3522 C.3     1  UNL1        0.1355
     23 O         138.8876  139.1316  157.8089 O.2     1  UNL1       -0.2696
     24 C         138.3630  140.4838  158.1916 C.2     1  UNL1        0.2520
     25 N         137.5859  140.6544  159.4633 N.am    1  UNL1       -0.2971
     26 H         137.2416  141.5418  159.7145 H       1  UNL1        0.1499
     27 C         138.6154  141.6653  157.3026 C.ar    1  UNL1        0.0836
     28 C         139.9427  142.0749  156.7363 C.ar    1  UNL1        0.0124
     29 C         139.7325  143.3074  155.9076 C.ar    1  UNL1        0.0186
     30 C         138.2754  143.6595  155.9616 C.ar    1  UNL1        0.0871
     31 CL        137.6232  144.8223  155.2742 Cl      1  UNL1       -0.0752
     32 S         137.5851  142.6445  156.8239 S.2     1  UNL1       -0.0710
@<TRIPOS>BOND
     1    23    24    2
     2    24    25   am
     3    25    22    1
     4     1    22    1
     5     1     2    1
     6     2     3    1
     7     3     4    2
     8     3     5   am
     9     5     6    1
    10     6     7   ar
    11     7     8   ar
    12     8     9   ar
    13     9    15    1
    14    15    16    1
    15    16    17    1
    16    17    18    1
    17    18    19    1
    18    19    20    1
    19    20    21    2
    20     9    10   ar
    21    10    11   ar
    22    11    12    1
    23    12    13    1
    24    14    13    1
    25    24    27    1
    26    27    28   ar
    27    28    29   ar
    28    29    30   ar
    29    30    31    1
    30    30    32   ar
    31    14     1    1
    32    32    27   ar
    33    14     5    1
    34    11     6   ar
    35    20    15   am
    36    25    26    1
@<TRIPOS>MOLECULE
*****
 32 36 0 0 0
SMALL
GASTEIGER

@<TRIPOS>ATOM
      1 C         142.2922  137.9251  161.5465 C.3     1  UNL1        0.2120
      2 O         140.8568  137.5001  161.4521 O.3     1  UNL1       -0.4344
      3 C         140.1690  137.9052  162.7221 C.2     1  UNL1        0.4089
      4 O         138.7244  137.6753  163.0545 O.2     1  UNL1       -0.2258
      5 N         141.1793  138.5806  163.6013 N.am    1  UNL1       -0.2164
      6 C         141.0740  139.1860  164.9697 C.ar    1  UNL1        0.0911
      7 C         139.7618  139.1737  165.6962 C.ar    1  UNL1        0.0194
      8 C         139.6564  139.7791  167.0646 C.ar    1  UNL1        0.0164
      9 C         140.8633  140.3968  167.7063 C.ar    1  UNL1        0.0571
     10 C         142.1755  140.4091  166.9798 C.ar    1  UNL1        0.0531
     11 C         142.2808  139.8037  165.6115 C.ar    1  UNL1        0.1535
     12 O         143.5931  139.8160  164.8848 O.3     1  UNL1       -0.4722
     13 C         143.6984  139.2106  163.5165 C.3     1  UNL1        0.2293
     14 C         142.4915  138.5929  162.8747 C.3     1  UNL1        0.1682
     15 N         140.7580  141.0022  169.0747 N.am    1  UNL1       -0.2539
     16 C         140.0233  142.2956  169.2681 C.3     1  UNL1        0.1303
     17 C         139.9180  142.9010  170.6365 C.3     1  UNL1        0.1646
     18 O         140.5472  142.2129  171.8115 O.3     1  UNL1       -0.3426
     19 C         141.2819  140.9195  171.6181 C.3     1  UNL1        0.2275
     20 C         141.3872  140.3141  170.2497 C.2     1  UNL1        0.2596
     21 O         142.1219  139.0207  170.0563 O.2     1  UNL1       -0.2718
     22 C         143.3437  137.7186  160.4968 C.3     1  UNL1        0.1355
     23 O         143.9724  140.6493  160.3727 O.2     1  UNL1       -0.2696
     24 C         143.5676  139.9158  159.1285 C.2     1  UNL1        0.2520
     25 N         143.2533  138.4504  159.1906 N.am    1  UNL1       -0.2971
     26 H         142.9876  137.9689  158.3740 H       1  UNL1        0.1499
     27 C         143.4772  140.6477  157.8223 C.ar    1  UNL1        0.0836
     28 C         142.7491  141.9370  157.5826 C.ar    1  UNL1        0.0124
     29 C         142.9209  142.3049  156.1387 C.ar    1  UNL1        0.0186
     30 C         143.7553  141.2429  155.4858 C.ar    1  UNL1        0.0871
     31 CL        144.1725  141.2108  154.0454 Cl      1  UNL1       -0.0752
     32 S         144.0991  140.2187  156.5265 S.2     1  UNL1       -0.0710
@<TRIPOS>BOND
     1    23    24    2
     2    24    25   am
     3    25    22    1
     4     1    22    1
     5     1     2    1
     6     2     3    1
     7     3     4    2
     8     3     5   am
     9     5     6    1
    10     6     7   ar
    11     7     8   ar
    12     8     9   ar
    13     9    15    1
    14    15    16    1
    15    16    17    1
    16    17    18    1
    17    18    19    1
    18    19    20    1
    19    20    21    2
    20     9    10   ar
    21    10    11   ar
    22    11    12    1
    23    12    13    1
    24    14    13    1
    25    24    27    1
    26    27    28   ar
    27    28    29   ar
    28    29    30   ar
    29    30    31    1
    30    30    32   ar
    31    14     1    1
    32    32    27   ar
    33    14     5    1
    34    11     6   ar
    35    20    15   am
    36    25    26    1
@<TRIPOS>MOLECULE
*****
 32 36 0 0 0
SMALL
GASTEIGER

@<TRIPOS>ATOM
      1 C         141.8766  140.3616  169.7884 C.3     1  UNL1        0.2120
      2 O         140.5077  140.0201  170.2978 O.3     1  UNL1       -0.4344
      3 C         139.6141  139.7991  169.1134 C.2     1  UNL1        0.4089
      4 O         138.1594  139.4368  169.1620 O.2     1  UNL1       -0.2258
      5 N         140.4308  140.0040  167.8721 N.am    1  UNL1       -0.2164
      6 C         140.0818  139.9189  166.4157 C.ar    1  UNL1        0.0911
      7 C         138.6835  139.5713  165.9986 C.ar    1  UNL1        0.0194
      8 C         138.3346  139.4863  164.5423 C.ar    1  UNL1        0.0164
      9 C         139.3839  139.7488  163.5030 C.ar    1  UNL1        0.0571
     10 C         140.7821  140.0965  163.9201 C.ar    1  UNL1        0.0531
     11 C         141.1311  140.1815  165.3764 C.ar    1  UNL1        0.1535
     12 O         142.5294  140.5292  165.7936 O.3     1  UNL1       -0.4722
     13 C         142.8783  140.6142  167.2499 C.3     1  UNL1        0.2293
     14 C         141.8290  140.3517  168.2892 C.3     1  UNL1        0.1682
     15 N         139.0349  139.6638  162.0466 N.am    1  UNL1       -0.2539
     16 C         139.7017  138.6421  161.1740 C.3     1  UNL1        0.1303
     17 C         139.3527  138.5570  159.7176 C.3     1  UNL1        0.1646
     18 O         138.3368  139.4936  159.1339 O.3     1  UNL1       -0.3426
     19 C         137.6700  140.5153  160.0066 C.3     1  UNL1        0.2275
     20 C         138.0190  140.6004  161.4629 C.2     1  UNL1        0.2596
     21 O         137.3521  141.6221  162.3356 O.2     1  UNL1       -0.2718
     22 C         143.0815  140.6606  170.6303 C.3     1  UNL1        0.1355
     23 O         143.3066  137.9235  169.4231 O.2     1  UNL1       -0.2696
     24 C         143.8693  138.1898  170.7878 C.2     1  UNL1        0.2520
     25 N         143.7568  139.5585  171.3914 N.am    1  UNL1       -0.2971
     26 H         144.1261  139.7333  172.2871 H       1  UNL1        0.1499
     27 C         144.5446  137.0876  171.5488 C.ar    1  UNL1        0.0836
     28 C         144.2239  135.6254  171.4533 C.ar    1  UNL1        0.0124
     29 C         145.1401  134.8882  172.3844 C.ar    1  UNL1        0.0186
     30 C         146.0272  135.8948  173.0553 C.ar    1  UNL1        0.0871
     31 CL        147.0948  135.5947  174.0653 Cl      1  UNL1       -0.0752
     32 S         145.6590  137.2541  172.5388 S.2     1  UNL1       -0.0710
@<TRIPOS>BOND
     1    23    24    2
     2    24    25   am
     3    25    22    1
     4     1    22    1
     5     1     2    1
     6     2     3    1
     7     3     4    2
     8     3     5   am
     9     5     6    1
    10     6     7   ar
    11     7     8   ar
    12     8     9   ar
    13     9    15    1
    14    15    16    1
    15    16    17    1
    16    17    18    1
    17    18    19    1
    18    19    20    1
    19    20    21    2
    20     9    10   ar
    21    10    11   ar
    22    11    12    1
    23    12    13    1
    24    14    13    1
    25    24    27    1
    26    27    28   ar
    27    28    29   ar
    28    29    30   ar
    29    30    31    1
    30    30    32   ar
    31    14     1    1
    32    32    27   ar
    33    14     5    1
    34    11     6   ar
    35    20    15   am
    36    25    26    1
@<TRIPOS>MOLECULE
*****
 32 36 0 0 0
SMALL
GASTEIGER

@<TRIPOS>ATOM
      1 C         142.5732  140.6861  160.7615 C.3     1  UNL1        0.2120
      2 O         143.8867  141.4010  160.8775 O.3     1  UNL1       -0.4344
      3 C         144.0636  141.8165  162.3079 C.2     1  UNL1        0.4089
      4 O         145.2384  142.5597  162.8713 O.2     1  UNL1       -0.2258
      5 N         142.8593  141.3584  163.0759 N.am    1  UNL1       -0.2164
      6 C         142.4826  141.4872  164.5222 C.ar    1  UNL1        0.0911
      7 C         143.4037  142.1858  165.4778 C.ar    1  UNL1        0.0194
      8 C         143.0269  142.3146  166.9240 C.ar    1  UNL1        0.0164
      9 C         141.7289  141.7447  167.4144 C.ar    1  UNL1        0.0571
     10 C         140.8078  141.0460  166.4588 C.ar    1  UNL1        0.0531
     11 C         141.1846  140.9173  165.0126 C.ar    1  UNL1        0.1535
     12 O         140.2635  140.2186  164.0569 O.3     1  UNL1       -0.4722
     13 C         140.6403  140.0898  162.6107 C.3     1  UNL1        0.2293
     14 C         141.9382  140.6597  162.1202 C.3     1  UNL1        0.1682
     15 N         141.3521  141.8735  168.8607 N.am    1  UNL1       -0.2539
     16 C         140.3517  142.9070  169.2859 C.3     1  UNL1        0.1303
     17 C         139.9749  143.0358  170.7321 C.3     1  UNL1        0.1646
     18 O         140.5986  142.1310  171.7531 O.3     1  UNL1       -0.3426
     19 C         141.5991  141.0974  171.3278 C.3     1  UNL1        0.2275
     20 C         141.9758  140.9687  169.8816 C.2     1  UNL1        0.2596
     21 O         142.9763  139.9351  169.4563 O.2     1  UNL1       -0.2718
     22 C         141.9959  140.1003  159.5070 C.3     1  UNL1        0.1355
     23 O         140.6406  138.5508  157.3248 O.2     1  UNL1       -0.2696
     24 C         142.0752  138.2722  157.6626 C.2     1  UNL1        0.2520
     25 N         142.7529  139.0470  158.7538 N.am    1  UNL1       -0.2971
     26 H         143.6945  138.8642  158.9756 H       1  UNL1        0.1499
     27 C         142.8322  137.2188  156.9093 C.ar    1  UNL1        0.0836
     28 C         143.7144  137.4491  155.7182 C.ar    1  UNL1        0.0124
     29 C         144.2673  136.1230  155.2876 C.ar    1  UNL1        0.0186
     30 C         143.7269  135.0730  156.2127 C.ar    1  UNL1        0.0871
     31 CL        144.0217  133.6037  156.1469 Cl      1  UNL1       -0.0752
     32 S         142.8399  135.7504  157.2149 S.2     1  UNL1       -0.0710
@<TRIPOS>BOND
     1    23    24    2
     2    24    25   am
     3    25    22    1
     4     1    22    1
     5     1     2    1
     6     2     3    1
     7     3     4    2
     8     3     5   am
     9     5     6    1
    10     6     7   ar
    11     7     8   ar
    12     8     9   ar
    13     9    15    1
    14    15    16    1
    15    16    17    1
    16    17    18    1
    17    18    19    1
    18    19    20    1
    19    20    21    2
    20     9    10   ar
    21    10    11   ar
    22    11    12    1
    23    12    13    1
    24    14    13    1
    25    24    27    1
    26    27    28   ar
    27    28    29   ar
    28    29    30   ar
    29    30    31    1
    30    30    32   ar
    31    14     1    1
    32    32    27   ar
    33    14     5    1
    34    11     6   ar
    35    20    15   am
    36    25    26    1
