@<TRIPOS>MOLECULE
*****
 32 35 0 0 0
SMALL
GASTEIGER

@<TRIPOS>ATOM
      1 O         142.8262  139.1159  167.6188 O.3     1  UNL1       -0.4517
      2 C         141.9118  139.6718  166.5676 C.ar    1  UNL1        0.2312
      3 N         140.7035  138.8942  166.1372 N.ar    1  UNL1       -0.1892
      4 C         139.7892  139.4501  165.0860 C.ar    1  UNL1        0.2029
      5 N         140.0831  140.7836  164.4653 N.ar    1  UNL1       -0.2045
      6 C         141.2914  141.5612  164.8957 C.ar    1  UNL1        0.1732
      7 C         142.2057  141.0053  165.9469 C.ar    1  UNL1        0.1099
      8 C         143.3132  141.9928  166.1673 C.ar    1  UNL1        0.1283
      9 N         143.0833  143.1589  165.2523 N.ar    1  UNL1       -0.1606
     10 N         141.8338  142.8922  164.4665 N.ar    1  UNL1       -0.1936
     11 C         141.2322  143.7976  163.4328 C.ar    1  UNL1        0.1759
     12 N         141.8634  143.9116  162.0769 N.ar    1  UNL1       -0.2242
     13 C         141.2618  144.8170  161.0433 C.ar    1  UNL1        0.1006
     14 C         140.0289  145.6083  161.3655 C.ar    1  UNL1        0.0217
     15 C         139.3977  145.4942  162.7214 C.ar    1  UNL1        0.0161
     16 C         139.9993  144.5889  163.7551 C.ar    1  UNL1        0.0935
     17 CL        139.3680  144.4749  165.1109 Cl      1  UNL1       -0.0790
     18 C         142.4497  139.2125  169.0676 C.3     1  UNL1        0.2722
     19 C         143.3277  138.5920  170.1136 C.2     1  UNL1        0.2701
     20 O         143.8386  139.4229  171.2531 O.2     1  UNL1       -0.2707
     21 N         143.6948  137.1406  170.0201 N.am    1  UNL1       -0.2663
     22 H         143.3594  136.5953  169.2722 H       1  UNL1        0.1564
     23 C         144.5728  136.5201  171.0660 C.ar    1  UNL1        0.1342
     24 C         143.9919  135.5554  172.0569 C.ar    1  UNL1        0.0345
     25 C         144.8698  134.9349  173.1028 C.ar    1  UNL1        0.0045
     26 C         146.3288  135.2791  173.1580 C.ar    1  UNL1        0.0208
     27 C         146.9097  136.2439  172.1672 C.ar    1  UNL1        0.1003
     28 N         146.0316  136.8644  171.1212 N.ar    1  UNL1       -0.2290
     29 C         141.1952  139.9295  169.4703 C.3     1  UNL1        0.1951
     30 O         141.2667  141.3407  169.9737 O.3     1  UNL1       -0.3494
     31 C         140.4047  143.7829  169.7672 C.3     1  UNL1        0.0346
     32 C         140.1634  142.3066  169.6572 C.3     1  UNL1        0.1424
@<TRIPOS>BOND
     1    31    32    1
     2    32    30    1
     3    30    29    1
     4    18    29    1
     5    18     1    1
     6     1     2    1
     7     2     3   ar
     8     3     4   ar
     9     4     5   ar
    10     5     6   ar
    11     6     7   ar
    12     7     8   ar
    13     8     9   ar
    14     9    10   ar
    15    10    11    1
    16    11    12   ar
    17    12    13   ar
    18    13    14   ar
    19    14    15   ar
    20    15    16   ar
    21    16    17    1
    22    18    19    1
    23    19    20    2
    24    19    21   am
    25    21    23    1
    26    23    24   ar
    27    24    25   ar
    28    25    26   ar
    29    26    27   ar
    30    27    28   ar
    31     7     2   ar
    32    16    11   ar
    33    28    23   ar
    34    10     6   ar
    35    21    22    1
@<TRIPOS>MOLECULE
*****
 32 35 0 0 0
SMALL
GASTEIGER

@<TRIPOS>ATOM
      1 O         137.0945  141.6223  162.5899 O.3     1  UNL1       -0.4517
      2 C         137.9056  142.4174  163.5697 C.ar    1  UNL1        0.2312
      3 N         138.0056  143.9072  163.4263 N.ar    1  UNL1       -0.1892
      4 C         138.8167  144.7022  164.4061 C.ar    1  UNL1        0.2029
      5 N         139.5278  144.0074  165.5293 N.ar    1  UNL1       -0.2045
      6 C         139.4279  142.5177  165.6727 C.ar    1  UNL1        0.1732
      7 C         138.6168  141.7227  164.6929 C.ar    1  UNL1        0.1099
      8 C         138.7017  140.2774  165.0856 C.ar    1  UNL1        0.1283
      9 N         139.5652  140.1793  166.3082 N.ar    1  UNL1       -0.1606
     10 N         140.0141  141.5638  166.6710 N.ar    1  UNL1       -0.1936
     11 C         140.8945  141.9302  167.8288 C.ar    1  UNL1        0.1759
     12 N         140.2904  142.1960  169.1758 N.ar    1  UNL1       -0.2242
     13 C         141.1708  142.5624  170.3336 C.ar    1  UNL1        0.1006
     14 C         142.6555  142.6630  170.1445 C.ar    1  UNL1        0.0217
     15 C         143.2596  142.3972  168.7975 C.ar    1  UNL1        0.0161
     16 C         142.3791  142.0308  167.6397 C.ar    1  UNL1        0.0935
     17 CL        142.9833  141.7650  166.2927 Cl      1  UNL1       -0.0790
     18 C         137.7607  140.9875  161.4053 C.3     1  UNL1        0.2722
     19 C         138.8221  141.7339  160.6526 C.2     1  UNL1        0.2701
     20 O         140.2706  141.4441  160.9131 O.2     1  UNL1       -0.2707
     21 N         138.4349  142.7700  159.6394 N.am    1  UNL1       -0.2663
     22 H         137.4842  142.9602  159.4685 H       1  UNL1        0.1564
     23 C         139.4962  143.5163  158.8867 C.ar    1  UNL1        0.1342
     24 C         140.0347  142.9616  157.6013 C.ar    1  UNL1        0.0345
     25 C         141.0960  143.7079  156.8486 C.ar    1  UNL1        0.0045
     26 C         141.6189  145.0090  157.3813 C.ar    1  UNL1        0.0208
     27 C         141.0804  145.5638  158.6667 C.ar    1  UNL1        0.1003
     28 N         140.0191  144.8174  159.4194 N.ar    1  UNL1       -0.2290
     29 C         137.3656  139.6065  160.9735 C.3     1  UNL1        0.1951
     30 O         137.8439  138.4133  161.7465 O.3     1  UNL1       -0.3494
     31 C         140.0331  137.6049  162.8883 C.3     1  UNL1        0.0346
     32 C         139.2771  137.9817  161.6488 C.3     1  UNL1        0.1424
@<TRIPOS>BOND
     1    31    32    1
     2    32    30    1
     3    30    29    1
     4    18    29    1
     5    18     1    1
     6     1     2    1
     7     2     3   ar
     8     3     4   ar
     9     4     5   ar
    10     5     6   ar
    11     6     7   ar
    12     7     8   ar
    13     8     9   ar
    14     9    10   ar
    15    10    11    1
    16    11    12   ar
    17    12    13   ar
    18    13    14   ar
    19    14    15   ar
    20    15    16   ar
    21    16    17    1
    22    18    19    1
    23    19    20    2
    24    19    21   am
    25    21    23    1
    26    23    24   ar
    27    24    25   ar
    28    25    26   ar
    29    26    27   ar
    30    27    28   ar
    31     7     2   ar
    32    16    11   ar
    33    28    23   ar
    34    10     6   ar
    35    21    22    1
@<TRIPOS>MOLECULE
*****
 32 35 0 0 0
SMALL
GASTEIGER

@<TRIPOS>ATOM
      1 O         143.2010  138.8138  166.3954 O.3     1  UNL1       -0.4517
      2 C         143.4549  139.1260  164.9503 C.ar    1  UNL1        0.2312
      3 N         144.5693  140.0544  164.5681 N.ar    1  UNL1       -0.1892
      4 C         144.8231  140.3666  163.1231 C.ar    1  UNL1        0.2029
      5 N         143.9624  139.7504  162.0603 N.ar    1  UNL1       -0.2045
      6 C         142.8480  138.8220  162.4425 C.ar    1  UNL1        0.1732
      7 C         142.5942  138.5098  163.8875 C.ar    1  UNL1        0.1099
      8 C         141.4312  137.5652  163.9604 C.ar    1  UNL1        0.1283
      9 N         140.9663  137.2936  162.5604 N.ar    1  UNL1       -0.1606
     10 N         141.8419  138.0703  161.6223 N.ar    1  UNL1       -0.1936
     11 C         141.7309  138.0917  160.1266 C.ar    1  UNL1        0.1759
     12 N         142.8297  137.5140  159.2846 N.ar    1  UNL1       -0.2242
     13 C         142.7187  137.5354  157.7889 C.ar    1  UNL1        0.1006
     14 C         141.5089  138.1344  157.1350 C.ar    1  UNL1        0.0217
     15 C         140.4101  138.7121  157.9770 C.ar    1  UNL1        0.0161
     16 C         140.5211  138.6907  159.4727 C.ar    1  UNL1        0.0935
     17 CL        139.4222  139.2684  160.3146 Cl      1  UNL1       -0.0790
     18 C         142.2971  139.6950  167.2055 C.3     1  UNL1        0.2722
     19 C         141.1550  140.4081  166.5442 C.2     1  UNL1        0.2701
     20 O         139.7878  139.7912  166.5389 O.2     1  UNL1       -0.2707
     21 N         141.3803  141.7382  165.8883 N.am    1  UNL1       -0.2663
     22 H         142.2776  142.1431  165.8918 H       1  UNL1        0.1564
     23 C         140.2383  142.4512  165.2270 C.ar    1  UNL1        0.1342
     24 C         139.6784  143.7006  165.8398 C.ar    1  UNL1        0.0345
     25 C         138.5365  144.4137  165.1786 C.ar    1  UNL1        0.0045
     26 C         137.9543  143.8774  163.9044 C.ar    1  UNL1        0.0208
     27 C         138.5141  142.6280  163.2915 C.ar    1  UNL1        0.1003
     28 N         139.6561  141.9149  163.9529 N.ar    1  UNL1       -0.2290
     29 C         142.5352  139.8632  168.6769 C.3     1  UNL1        0.1951
     30 O         141.5262  139.3539  169.6630 O.3     1  UNL1       -0.3494
     31 C         139.3167  140.7081  169.8489 C.3     1  UNL1        0.0346
     32 C         140.6528  140.3190  170.4087 C.3     1  UNL1        0.1424
@<TRIPOS>BOND
     1    31    32    1
     2    32    30    1
     3    30    29    1
     4    18    29    1
     5    18     1    1
     6     1     2    1
     7     2     3   ar
     8     3     4   ar
     9     4     5   ar
    10     5     6   ar
    11     6     7   ar
    12     7     8   ar
    13     8     9   ar
    14     9    10   ar
    15    10    11    1
    16    11    12   ar
    17    12    13   ar
    18    13    14   ar
    19    14    15   ar
    20    15    16   ar
    21    16    17    1
    22    18    19    1
    23    19    20    2
    24    19    21   am
    25    21    23    1
    26    23    24   ar
    27    24    25   ar
    28    25    26   ar
    29    26    27   ar
    30    27    28   ar
    31     7     2   ar
    32    16    11   ar
    33    28    23   ar
    34    10     6   ar
    35    21    22    1
@<TRIPOS>MOLECULE
*****
 32 35 0 0 0
SMALL
GASTEIGER

@<TRIPOS>ATOM
      1 O         143.8204  143.2439  165.6047 O.3     1  UNL1       -0.4517
      2 C         143.8437  143.1647  164.1070 C.ar    1  UNL1        0.2312
      3 N         144.9421  142.4157  163.4124 N.ar    1  UNL1       -0.1892
      4 C         144.9653  142.3366  161.9147 C.ar    1  UNL1        0.2029
      5 N         143.8901  143.0066  161.1116 N.ar    1  UNL1       -0.2045
      6 C         142.7917  143.7556  161.8061 C.ar    1  UNL1        0.1732
      7 C         142.7685  143.8347  163.3038 C.ar    1  UNL1        0.1099
      8 C         141.5678  144.6384  163.7070 C.ar    1  UNL1        0.1283
      9 N         140.8490  145.0560  162.4584 N.ar    1  UNL1       -0.1606
     10 N         141.6054  144.5104  161.2836 N.ar    1  UNL1       -0.1936
     11 C         141.2397  144.6884  159.8398 C.ar    1  UNL1        0.1759
     12 N         142.0116  145.6478  158.9833 N.ar    1  UNL1       -0.2242
     13 C         141.6459  145.8257  157.5395 C.ar    1  UNL1        0.1006
     14 C         140.5083  145.0442  156.9521 C.ar    1  UNL1        0.0217
     15 C         139.7364  144.0848  157.8086 C.ar    1  UNL1        0.0161
     16 C         140.1021  143.9068  159.2524 C.ar    1  UNL1        0.0935
     17 CL        139.3302  142.9473  160.1088 Cl      1  UNL1       -0.0790
     18 C         143.0754  142.2121  166.3988 C.3     1  UNL1        0.2722
     19 C         142.4115  141.0630  165.6996 C.2     1  UNL1        0.2701
     20 O         143.2281  139.8919  165.2398 O.2     1  UNL1       -0.2707
     21 N         140.9309  141.0852  165.4602 N.am    1  UNL1       -0.2663
     22 H         140.3949  141.8539  165.7620 H       1  UNL1        0.1564
     23 C         140.2669  139.9362  164.7610 C.ar    1  UNL1        0.1342
     24 C         139.6796  138.8105  165.5597 C.ar    1  UNL1        0.0345
     25 C         139.0156  137.6615  164.8605 C.ar    1  UNL1        0.0045
     26 C         138.9390  137.6381  163.3626 C.ar    1  UNL1        0.0208
     27 C         139.5263  138.7638  162.5640 C.ar    1  UNL1        0.1003
     28 N         140.1903  139.9128  163.2632 N.ar    1  UNL1       -0.2290
     29 C         142.9944  142.3295  167.8920 C.3     1  UNL1        0.1951
     30 O         141.7507  141.8991  168.6117 O.3     1  UNL1       -0.3494
     31 C         140.5494  143.8542  169.8301 C.3     1  UNL1        0.0346
     32 C         140.5873  142.8390  168.7265 C.3     1  UNL1        0.1424
@<TRIPOS>BOND
     1    31    32    1
     2    32    30    1
     3    30    29    1
     4    18    29    1
     5    18     1    1
     6     1     2    1
     7     2     3   ar
     8     3     4   ar
     9     4     5   ar
    10     5     6   ar
    11     6     7   ar
    12     7     8   ar
    13     8     9   ar
    14     9    10   ar
    15    10    11    1
    16    11    12   ar
    17    12    13   ar
    18    13    14   ar
    19    14    15   ar
    20    15    16   ar
    21    16    17    1
    22    18    19    1
    23    19    20    2
    24    19    21   am
    25    21    23    1
    26    23    24   ar
    27    24    25   ar
    28    25    26   ar
    29    26    27   ar
    30    27    28   ar
    31     7     2   ar
    32    16    11   ar
    33    28    23   ar
    34    10     6   ar
    35    21    22    1
@<TRIPOS>MOLECULE
*****
 32 35 0 0 0
SMALL
GASTEIGER

@<TRIPOS>ATOM
      1 O         140.0432  137.3469  162.6446 O.3     1  UNL1       -0.4517
      2 C         140.7907  138.1180  163.6918 C.ar    1  UNL1        0.2312
      3 N         142.2517  138.4056  163.5114 N.ar    1  UNL1       -0.1892
      4 C         142.9992  139.1767  164.5587 C.ar    1  UNL1        0.2029
      5 N         142.2856  139.6601  165.7863 N.ar    1  UNL1       -0.2045
      6 C         140.8246  139.3725  165.9667 C.ar    1  UNL1        0.1732
      7 C         140.0771  138.6015  164.9195 C.ar    1  UNL1        0.1099
      8 C         138.6520  138.4707  165.3690 C.ar    1  UNL1        0.1283
      9 N         138.5187  139.1610  166.6940 N.ar    1  UNL1       -0.1606
     10 N         139.8615  139.7183  167.0634 N.ar    1  UNL1       -0.1936
     11 C         140.1844  140.4866  168.3106 C.ar    1  UNL1        0.1759
     12 N         140.2800  139.7739  169.6269 N.ar    1  UNL1       -0.2242
     13 C         140.6030  140.5422  170.8741 C.ar    1  UNL1        0.1006
     14 C         140.8303  142.0232  170.8050 C.ar    1  UNL1        0.0217
     15 C         140.7347  142.7359  169.4886 C.ar    1  UNL1        0.0161
     16 C         140.4118  141.9677  168.2414 C.ar    1  UNL1        0.0935
     17 CL        140.3162  142.6805  166.9251 Cl      1  UNL1       -0.0790
     18 C         139.3274  138.0746  161.5454 C.3     1  UNL1        0.2722
     19 C         140.0474  138.4046  160.2715 C.2     1  UNL1        0.2701
     20 O         139.2728  138.8424  159.0640 O.2     1  UNL1       -0.2707
     21 N         141.5421  138.2967  160.2052 N.am    1  UNL1       -0.2663
     22 H         142.0505  138.0093  160.9978 H       1  UNL1        0.1564
     23 C         142.2621  138.6266  158.9314 C.ar    1  UNL1        0.1342
     24 C         142.8465  139.9937  158.7326 C.ar    1  UNL1        0.0345
     25 C         143.5665  140.3236  157.4588 C.ar    1  UNL1        0.0045
     26 C         143.7021  139.2864  156.3837 C.ar    1  UNL1        0.0208
     27 C         143.1177  137.9193  156.5824 C.ar    1  UNL1        0.1003
     28 N         142.3977  137.5894  157.8563 N.ar    1  UNL1       -0.2290
     29 C         137.8917  138.4724  161.7202 C.3     1  UNL1        0.1951
     30 O         137.4949  139.9151  161.6139 O.3     1  UNL1       -0.3494
     31 C         137.7366  142.3217  162.5626 C.3     1  UNL1        0.0346
     32 C         137.7023  140.8377  162.7784 C.3     1  UNL1        0.1424
@<TRIPOS>BOND
     1    31    32    1
     2    32    30    1
     3    30    29    1
     4    18    29    1
     5    18     1    1
     6     1     2    1
     7     2     3   ar
     8     3     4   ar
     9     4     5   ar
    10     5     6   ar
    11     6     7   ar
    12     7     8   ar
    13     8     9   ar
    14     9    10   ar
    15    10    11    1
    16    11    12   ar
    17    12    13   ar
    18    13    14   ar
    19    14    15   ar
    20    15    16   ar
    21    16    17    1
    22    18    19    1
    23    19    20    2
    24    19    21   am
    25    21    23    1
    26    23    24   ar
    27    24    25   ar
    28    25    26   ar
    29    26    27   ar
    30    27    28   ar
    31     7     2   ar
    32    16    11   ar
    33    28    23   ar
    34    10     6   ar
    35    21    22    1
@<TRIPOS>MOLECULE
*****
 32 35 0 0 0
SMALL
GASTEIGER

@<TRIPOS>ATOM
      1 O         140.7864  145.2745  162.0847 O.3     1  UNL1       -0.4517
      2 C         140.5099  144.7090  163.4463 C.ar    1  UNL1        0.2312
      3 N         139.1917  144.9694  164.1130 N.ar    1  UNL1       -0.1892
      4 C         138.9152  144.4039  165.4746 C.ar    1  UNL1        0.2029
      5 N         139.9570  143.5781  166.1694 N.ar    1  UNL1       -0.2045
      6 C         141.2751  143.3177  165.5027 C.ar    1  UNL1        0.1732
      7 C         141.5516  143.8831  164.1412 C.ar    1  UNL1        0.1099
      8 C         142.9329  143.4614  163.7358 C.ar    1  UNL1        0.1283
      9 N         143.5101  142.6353  164.8468 N.ar    1  UNL1       -0.1606
     10 N         142.4855  142.5465  165.9388 N.ar    1  UNL1       -0.1936
     11 C         142.6436  141.8149  167.2387 C.ar    1  UNL1        0.1759
     12 N         143.2407  142.5130  168.4245 N.ar    1  UNL1       -0.2242
     13 C         143.3987  141.7814  169.7244 C.ar    1  UNL1        0.1006
     14 C         142.9597  140.3516  169.8386 C.ar    1  UNL1        0.0217
     15 C         142.3626  139.6535  168.6528 C.ar    1  UNL1        0.0161
     16 C         142.2046  140.3851  167.3529 C.ar    1  UNL1        0.0935
     17 CL        141.6075  139.6869  166.1671 Cl      1  UNL1       -0.0790
     18 C         140.3071  144.5516  160.8609 C.3     1  UNL1        0.2722
     19 C         139.6646  143.2023  160.9903 C.2     1  UNL1        0.2701
     20 O         138.1804  143.0596  160.8268 O.2     1  UNL1       -0.2707
     21 N         140.5063  141.9958  161.2834 N.am    1  UNL1       -0.2663
     22 H         141.4804  142.0894  161.3907 H       1  UNL1        0.1564
     23 C         139.8638  140.6465  161.4128 C.ar    1  UNL1        0.1342
     24 C         139.2579  140.2265  162.7191 C.ar    1  UNL1        0.0345
     25 C         138.6154  138.8773  162.8485 C.ar    1  UNL1        0.0045
     26 C         138.5788  137.9480  161.6715 C.ar    1  UNL1        0.0208
     27 C         139.1847  138.3680  160.3652 C.ar    1  UNL1        0.1003
     28 N         139.8272  139.7173  160.2358 N.ar    1  UNL1       -0.2290
     29 C         140.4704  145.1778  159.5078 C.3     1  UNL1        0.1951
     30 O         141.8292  145.6061  159.0386 O.3     1  UNL1       -0.3494
     31 C         141.2241  145.9905  156.5413 C.3     1  UNL1        0.0346
     32 C         142.1865  145.5066  157.5851 C.3     1  UNL1        0.1424
@<TRIPOS>BOND
     1    31    32    1
     2    32    30    1
     3    30    29    1
     4    18    29    1
     5    18     1    1
     6     1     2    1
     7     2     3   ar
     8     3     4   ar
     9     4     5   ar
    10     5     6   ar
    11     6     7   ar
    12     7     8   ar
    13     8     9   ar
    14     9    10   ar
    15    10    11    1
    16    11    12   ar
    17    12    13   ar
    18    13    14   ar
    19    14    15   ar
    20    15    16   ar
    21    16    17    1
    22    18    19    1
    23    19    20    2
    24    19    21   am
    25    21    23    1
    26    23    24   ar
    27    24    25   ar
    28    25    26   ar
    29    26    27   ar
    30    27    28   ar
    31     7     2   ar
    32    16    11   ar
    33    28    23   ar
    34    10     6   ar
    35    21    22    1
@<TRIPOS>MOLECULE
*****
 32 35 0 0 0
SMALL
GASTEIGER

@<TRIPOS>ATOM
      1 O         140.8778  145.3217  161.2681 O.3     1  UNL1       -0.4517
      2 C         140.0506  144.7379  162.3749 C.ar    1  UNL1        0.2312
      3 N         138.5541  144.8236  162.3182 N.ar    1  UNL1       -0.1892
      4 C         137.7270  144.2399  163.4250 C.ar    1  UNL1        0.2029
      5 N         138.3963  143.5703  164.5885 N.ar    1  UNL1       -0.2045
      6 C         139.8928  143.4846  164.6452 C.ar    1  UNL1        0.1732
      7 C         140.7199  144.0684  163.5384 C.ar    1  UNL1        0.1099
      8 C         142.1648  143.8341  163.8664 C.ar    1  UNL1        0.1283
      9 N         142.2306  143.1055  165.1759 N.ar    1  UNL1       -0.1606
     10 N         140.8264  142.8895  165.6572 N.ar    1  UNL1       -0.1936
     11 C         140.4261  142.1995  166.9275 C.ar    1  UNL1        0.1759
     12 N         140.5357  142.9196  168.2388 N.ar    1  UNL1       -0.2242
     13 C         140.1355  142.2296  169.5091 C.ar    1  UNL1        0.1006
     14 C         139.6255  140.8195  169.4682 C.ar    1  UNL1        0.0217
     15 C         139.5159  140.0995  168.1569 C.ar    1  UNL1        0.0161
     16 C         139.9162  140.7895  166.8866 C.ar    1  UNL1        0.0935
     17 CL        139.8065  140.0693  165.5753 Cl      1  UNL1       -0.0790
     18 C         140.9809  144.6085  159.9526 C.3     1  UNL1        0.2722
     19 C         141.0621  145.3946  158.6776 C.2     1  UNL1        0.2701
     20 O         142.2911  146.1968  158.3681 O.2     1  UNL1       -0.2707
     21 N         139.9142  145.3783  157.7121 N.am    1  UNL1       -0.2663
     22 H         139.1076  144.8517  157.9152 H       1  UNL1        0.1564
     23 C         139.9954  146.1644  156.4372 C.ar    1  UNL1        0.1342
     24 C         140.8653  145.6836  155.3137 C.ar    1  UNL1        0.0345
     25 C         140.9465  146.4697  154.0388 C.ar    1  UNL1        0.0045
     26 C         140.1576  147.7365  153.8872 C.ar    1  UNL1        0.0208
     27 C         139.2877  148.2173  155.0107 C.ar    1  UNL1        0.1003
     28 N         139.2066  147.4311  156.2857 N.ar    1  UNL1       -0.2290
     29 C         141.0029  143.1092  159.9120 C.3     1  UNL1        0.1951
     30 O         139.8724  142.3596  159.2716 O.3     1  UNL1       -0.3494
     31 C         138.9479  141.2631  161.4379 C.3     1  UNL1        0.0346
     32 C         138.7099  141.9025  160.1021 C.3     1  UNL1        0.1424
@<TRIPOS>BOND
     1    31    32    1
     2    32    30    1
     3    30    29    1
     4    18    29    1
     5    18     1    1
     6     1     2    1
     7     2     3   ar
     8     3     4   ar
     9     4     5   ar
    10     5     6   ar
    11     6     7   ar
    12     7     8   ar
    13     8     9   ar
    14     9    10   ar
    15    10    11    1
    16    11    12   ar
    17    12    13   ar
    18    13    14   ar
    19    14    15   ar
    20    15    16   ar
    21    16    17    1
    22    18    19    1
    23    19    20    2
    24    19    21   am
    25    21    23    1
    26    23    24   ar
    27    24    25   ar
    28    25    26   ar
    29    26    27   ar
    30    27    28   ar
    31     7     2   ar
    32    16    11   ar
    33    28    23   ar
    34    10     6   ar
    35    21    22    1
@<TRIPOS>MOLECULE
*****
 32 35 0 0 0
SMALL
GASTEIGER

@<TRIPOS>ATOM
      1 O         144.8368  140.6067  162.4645 O.3     1  UNL1       -0.4517
      2 C         144.4118  141.2210  163.7653 C.ar    1  UNL1        0.2312
      3 N         144.6986  142.6672  164.0409 N.ar    1  UNL1       -0.1892
      4 C         144.2737  143.2814  165.3417 C.ar    1  UNL1        0.2029
      5 N         143.5618  142.4493  166.3669 N.ar    1  UNL1       -0.2045
      6 C         143.2750  141.0031  166.0913 C.ar    1  UNL1        0.1732
      7 C         143.7000  140.3889  164.7905 C.ar    1  UNL1        0.1099
      8 C         143.2829  138.9480  164.8000 C.ar    1  UNL1        0.1283
      9 N         142.6002  138.6717  166.1067 N.ar    1  UNL1       -0.1606
     10 N         142.5953  139.9418  166.9048 N.ar    1  UNL1       -0.1936
     11 C         142.0129  140.1195  168.2756 C.ar    1  UNL1        0.1759
     12 N         142.9185  140.2417  169.4652 N.ar    1  UNL1       -0.2242
     13 C         142.3361  140.4194  170.8360 C.ar    1  UNL1        0.1006
     14 C         140.8481  140.4749  171.0174 C.ar    1  UNL1        0.0217
     15 C         139.9426  140.3527  169.8279 C.ar    1  UNL1        0.0161
     16 C         140.5250  140.1750  168.4570 C.ar    1  UNL1        0.0935
     17 CL        139.6194  140.0528  167.2675 Cl      1  UNL1       -0.0790
     18 C         143.9419  140.6982  161.2641 C.3     1  UNL1        0.2722
     19 C         142.8243  141.6984  161.2363 C.2     1  UNL1        0.2701
     20 O         141.4020  141.2313  161.1432 O.2     1  UNL1       -0.2707
     21 N         143.1292  143.1656  161.3016 N.am    1  UNL1       -0.2663
     22 H         144.0627  143.4722  161.3627 H       1  UNL1        0.1564
     23 C         142.0117  144.1658  161.2737 C.ar    1  UNL1        0.1342
     24 C         141.5173  144.7738  162.5528 C.ar    1  UNL1        0.0345
     25 C         140.3998  145.7740  162.5249 C.ar    1  UNL1        0.0045
     26 C         139.7766  146.1661  161.2181 C.ar    1  UNL1        0.0208
     27 C         140.2709  145.5580  159.9390 C.ar    1  UNL1        0.1003
     28 N         141.3885  144.5578  159.9669 N.ar    1  UNL1       -0.2290
     29 C         144.1647  139.7896  160.0916 C.3     1  UNL1        0.1951
     30 O         143.1029  138.8089  159.6904 O.3     1  UNL1       -0.3494
     31 C         141.7879  137.7661  161.6737 C.3     1  UNL1        0.0346
     32 C         142.7960  137.6339  160.5709 C.3     1  UNL1        0.1424
@<TRIPOS>BOND
     1    31    32    1
     2    32    30    1
     3    30    29    1
     4    18    29    1
     5    18     1    1
     6     1     2    1
     7     2     3   ar
     8     3     4   ar
     9     4     5   ar
    10     5     6   ar
    11     6     7   ar
    12     7     8   ar
    13     8     9   ar
    14     9    10   ar
    15    10    11    1
    16    11    12   ar
    17    12    13   ar
    18    13    14   ar
    19    14    15   ar
    20    15    16   ar
    21    16    17    1
    22    18    19    1
    23    19    20    2
    24    19    21   am
    25    21    23    1
    26    23    24   ar
    27    24    25   ar
    28    25    26   ar
    29    26    27   ar
    30    27    28   ar
    31     7     2   ar
    32    16    11   ar
    33    28    23   ar
    34    10     6   ar
    35    21    22    1
@<TRIPOS>MOLECULE
*****
 32 35 0 0 0
SMALL
GASTEIGER

@<TRIPOS>ATOM
      1 O         137.4532  140.5263  162.8513 O.3     1  UNL1       -0.4517
      2 C         138.4192  141.1395  163.8214 C.ar    1  UNL1        0.2312
      3 N         139.1595  142.3909  163.4529 N.ar    1  UNL1       -0.1892
      4 C         140.1254  143.0041  164.4230 C.ar    1  UNL1        0.2029
      5 N         140.3509  142.3659  165.7616 N.ar    1  UNL1       -0.2045
      6 C         139.6105  141.1145  166.1301 C.ar    1  UNL1        0.1732
      7 C         138.6447  140.5013  165.1600 C.ar    1  UNL1        0.1099
      8 C         138.0634  139.2742  165.7976 C.ar    1  UNL1        0.1283
      9 N         138.6701  139.1290  167.1617 N.ar    1  UNL1       -0.1606
     10 N         139.6263  140.2664  167.3672 N.ar    1  UNL1       -0.1936
     11 C         140.4530  140.5124  168.5943 C.ar    1  UNL1        0.1759
     12 N         139.8534  141.2199  169.7732 N.ar    1  UNL1       -0.2242
     13 C         140.6802  141.4660  171.0004 C.ar    1  UNL1        0.1006
     14 C         142.1066  141.0045  171.0487 C.ar    1  UNL1        0.0217
     15 C         142.7062  140.2970  169.8698 C.ar    1  UNL1        0.0161
     16 C         141.8794  140.0509  168.6426 C.ar    1  UNL1        0.0935
     17 CL        142.4791  139.3434  167.4637 Cl      1  UNL1       -0.0790
     18 C         137.9606  139.6808  161.7210 C.3     1  UNL1        0.2722
     19 C         138.2877  140.3123  160.4002 C.2     1  UNL1        0.2701
     20 O         138.4665  139.4547  159.1826 O.2     1  UNL1       -0.2707
     21 N         138.4361  141.8014  160.2971 N.am    1  UNL1       -0.2663
     22 H         138.3187  142.3642  161.0963 H       1  UNL1        0.1564
     23 C         138.7632  142.4328  158.9765 C.ar    1  UNL1        0.1342
     24 C         140.1146  143.0437  158.7514 C.ar    1  UNL1        0.0345
     25 C         140.4418  143.6751  157.4308 C.ar    1  UNL1        0.0045
     26 C         139.4175  143.6958  156.3351 C.ar    1  UNL1        0.0208
     27 C         138.0661  143.0850  156.5601 C.ar    1  UNL1        0.1003
     28 N         137.7390  142.4535  157.8808 N.ar    1  UNL1       -0.2290
     29 C         138.1408  138.2039  161.9113 C.3     1  UNL1        0.1951
     30 O         139.5197  137.6143  161.9417 O.3     1  UNL1       -0.3494
     31 C         140.9663  137.2101  164.0617 C.3     1  UNL1        0.0346
     32 C         140.5234  138.1054  162.9426 C.3     1  UNL1        0.1424
@<TRIPOS>BOND
     1    31    32    1
     2    32    30    1
     3    30    29    1
     4    18    29    1
     5    18     1    1
     6     1     2    1
     7     2     3   ar
     8     3     4   ar
     9     4     5   ar
    10     5     6   ar
    11     6     7   ar
    12     7     8   ar
    13     8     9   ar
    14     9    10   ar
    15    10    11    1
    16    11    12   ar
    17    12    13   ar
    18    13    14   ar
    19    14    15   ar
    20    15    16   ar
    21    16    17    1
    22    18    19    1
    23    19    20    2
    24    19    21   am
    25    21    23    1
    26    23    24   ar
    27    24    25   ar
    28    25    26   ar
    29    26    27   ar
    30    27    28   ar
    31     7     2   ar
    32    16    11   ar
    33    28    23   ar
    34    10     6   ar
    35    21    22    1
