@<TRIPOS>MOLECULE
*****
 23 25 0 0 0
SMALL
GASTEIGER

@<TRIPOS>ATOM
      1 C         144.5703  142.9984  164.7471 C.3     1  UNL1        0.1424
      2 N         144.1556  145.4480  162.6313 N.pl3   1  UNL1       -0.3288
      3 C         143.0850  144.8192  163.4729 C.ar    1  UNL1        0.1945
      4 N         141.6358  145.2060  163.4897 N.ar    1  UNL1       -0.2183
      5 C         140.9307  144.3190  164.4727 C.ar    1  UNL1        0.0786
      6 C         141.9442  143.3841  165.0634 C.ar    1  UNL1        0.0929
      7 N         143.2756  143.6933  164.4454 N.ar    1  UNL1       -0.2961
      8 H         143.9310  146.1857  162.0193 H       1  UNL1        0.1451
      9 H         145.0830  145.1229  162.6908 H       1  UNL1        0.1451
     10 C         139.4689  144.3598  164.8064 C.3     1  UNL1        0.0419
     11 C         138.3362  144.9188  165.6156 C.3     1  UNL1        0.0064
     12 C         138.0696  143.8715  164.5752 C.3     1  UNL1        0.0064
     13 C         144.9712  141.7852  163.9614 C.3     1  UNL1        0.1561
     14 O         146.3004  141.7467  163.2674 O.3     1  UNL1       -0.3780
     15 H         146.4013  140.8978  162.8089 H       1  UNL1        0.2109
     16 C         144.0429  140.6105  163.8697 C.ar    1  UNL1        0.0168
     17 C         143.9324  139.6505  165.0170 C.ar    1  UNL1       -0.0002
     18 C         143.0042  138.4759  164.9252 C.ar    1  UNL1        0.0112
     19 C         142.1864  138.2612  163.6863 C.ar    1  UNL1        0.0585
     20 CL        141.2580  137.0865  163.5946 Cl      1  UNL1       -0.0822
     21 C         142.2968  139.2211  162.5390 C.ar    1  UNL1        0.0225
     22 C         143.2251  140.3958  162.6307 C.ar    1  UNL1        0.0568
     23 CL        143.3356  141.3558  161.4835 Cl      1  UNL1       -0.0825
@<TRIPOS>BOND
     1     2     3    1
     2     3     4   ar
     3     4     5   ar
     4     5    10    1
     5    10    11    1
     6    11    12    1
     7     5     6   ar
     8     6     7   ar
     9     7     1    1
    10     1    13    1
    11    13    14    1
    12    13    16    1
    13    16    17   ar
    14    17    18   ar
    15    18    19   ar
    16    19    20    1
    17    19    21   ar
    18    21    22   ar
    19    22    23    1
    20     7     3   ar
    21    22    16   ar
    22    12    10    1
    23     2     8    1
    24     2     9    1
    25    14    15    1
@<TRIPOS>MOLECULE
*****
 23 25 0 0 0
SMALL
GASTEIGER

@<TRIPOS>ATOM
      1 C         139.6201  144.6262  164.3406 C.3     1  UNL1        0.1424
      2 N         137.6827  143.5128  161.9623 N.pl3   1  UNL1       -0.3288
      3 C         138.1289  142.7421  163.1694 C.ar    1  UNL1        0.1945
      4 N         137.7629  141.3244  163.4951 N.ar    1  UNL1       -0.2183
      5 C         138.4273  140.9599  164.7897 C.ar    1  UNL1        0.0786
      6 C         139.2039  142.1525  165.2640 C.ar    1  UNL1        0.0929
      7 N         139.0194  143.2539  164.2625 N.ar    1  UNL1       -0.2961
      8 H         137.0949  143.0880  161.2966 H       1  UNL1        0.1451
      9 H         137.9777  144.4435  161.8358 H       1  UNL1        0.1451
     10 C         138.3318  139.6356  165.4874 C.3     1  UNL1        0.0419
     11 C         137.8894  138.8154  166.6629 C.3     1  UNL1        0.0064
     12 C         138.6089  138.1618  165.5205 C.3     1  UNL1        0.0064
     13 C         140.7427  145.0069  163.4215 C.3     1  UNL1        0.1561
     14 O         140.6048  146.2003  162.5233 O.3     1  UNL1       -0.3780
     15 H         141.4139  146.3055  161.9988 H       1  UNL1        0.2109
     16 C         142.0034  144.1942  163.4007 C.ar    1  UNL1        0.0168
     17 C         143.0552  144.4146  164.4471 C.ar    1  UNL1       -0.0002
     18 C         144.3158  143.6019  164.4262 C.ar    1  UNL1        0.0112
     19 C         144.5246  142.5689  163.3588 C.ar    1  UNL1        0.0585
     20 CL        145.7852  141.7562  163.3380 Cl      1  UNL1       -0.0822
     21 C         143.4728  142.3486  162.3124 C.ar    1  UNL1        0.0225
     22 C         142.2122  143.1612  162.3333 C.ar    1  UNL1        0.0568
     23 CL        141.1603  142.9409  161.2868 Cl      1  UNL1       -0.0825
@<TRIPOS>BOND
     1     2     3    1
     2     3     4   ar
     3     4     5   ar
     4     5    10    1
     5    10    11    1
     6    11    12    1
     7     5     6   ar
     8     6     7   ar
     9     7     1    1
    10     1    13    1
    11    13    14    1
    12    13    16    1
    13    16    17   ar
    14    17    18   ar
    15    18    19   ar
    16    19    20    1
    17    19    21   ar
    18    21    22   ar
    19    22    23    1
    20     7     3   ar
    21    22    16   ar
    22    12    10    1
    23     2     8    1
    24     2     9    1
    25    14    15    1
@<TRIPOS>MOLECULE
*****
 23 25 0 0 0
SMALL
GASTEIGER

@<TRIPOS>ATOM
      1 C         141.6596  139.3293  165.9199 C.3     1  UNL1        0.1424
      2 N         138.7508  137.9093  165.5054 N.pl3   1  UNL1       -0.3288
      3 C         139.0643  139.3588  165.2805 C.ar    1  UNL1        0.1945
      4 N         138.0958  140.4101  164.8256 N.ar    1  UNL1       -0.2183
      5 C         138.8344  141.7126  164.7350 C.ar    1  UNL1        0.0786
      6 C         140.2593  141.4662  165.1339 C.ar    1  UNL1        0.0929
      7 N         140.4013  140.0115  165.4710 N.ar    1  UNL1       -0.2961
      8 H         137.8380  137.5736  165.3525 H       1  UNL1        0.1451
      9 H         139.4578  137.2936  165.8059 H       1  UNL1        0.1451
     10 C         138.2505  143.0300  164.3186 C.3     1  UNL1        0.0419
     11 C         137.7209  143.9355  163.2463 C.3     1  UNL1        0.0064
     12 C         137.7689  144.4065  164.6696 C.3     1  UNL1        0.0064
     13 C         142.1354  139.4880  167.3335 C.3     1  UNL1        0.1561
     14 O         143.3051  138.6881  167.8254 O.3     1  UNL1       -0.3780
     15 H         143.4806  138.9090  168.7534 H       1  UNL1        0.2109
     16 C         141.4416  140.4467  168.2553 C.ar    1  UNL1        0.0168
     17 C         140.2247  140.0088  169.0152 C.ar    1  UNL1       -0.0002
     18 C         139.5310  140.9675  169.9369 C.ar    1  UNL1        0.0112
     19 C         140.0541  142.3640  170.0987 C.ar    1  UNL1        0.0585
     20 CL        139.3603  143.3226  171.0205 Cl      1  UNL1       -0.0822
     21 C         141.2710  142.8018  169.3388 C.ar    1  UNL1        0.0225
     22 C         141.9647  141.8432  168.4171 C.ar    1  UNL1        0.0568
     23 CL        143.1817  142.2810  167.6572 Cl      1  UNL1       -0.0825
@<TRIPOS>BOND
     1     2     3    1
     2     3     4   ar
     3     4     5   ar
     4     5    10    1
     5    10    11    1
     6    11    12    1
     7     5     6   ar
     8     6     7   ar
     9     7     1    1
    10     1    13    1
    11    13    14    1
    12    13    16    1
    13    16    17   ar
    14    17    18   ar
    15    18    19   ar
    16    19    20    1
    17    19    21   ar
    18    21    22   ar
    19    22    23    1
    20     7     3   ar
    21    22    16   ar
    22    12    10    1
    23     2     8    1
    24     2     9    1
    25    14    15    1
@<TRIPOS>MOLECULE
*****
 23 25 0 0 0
SMALL
GASTEIGER

@<TRIPOS>ATOM
      1 C         140.1165  144.7669  164.2542 C.3     1  UNL1        0.1424
      2 N         137.4736  144.1880  162.4296 N.pl3   1  UNL1       -0.3288
      3 C         138.0931  143.2373  163.4106 C.ar    1  UNL1        0.1945
      4 N         137.6066  141.8537  163.7252 N.ar    1  UNL1       -0.2183
      5 C         138.5208  141.2647  164.7583 C.ar    1  UNL1        0.0786
      6 C         139.5723  142.2843  165.0822 C.ar    1  UNL1        0.0929
      7 N         139.3079  143.5034  164.2493 N.ar    1  UNL1       -0.2961
      8 H         136.6726  143.9204  161.9235 H       1  UNL1        0.1451
      9 H         137.8679  145.0795  162.2918 H       1  UNL1        0.1451
     10 C         138.4041  139.8963  165.3616 C.3     1  UNL1        0.0419
     11 C         138.0101  139.0106  166.5063 C.3     1  UNL1        0.0064
     12 C         138.5958  138.4120  165.2618 C.3     1  UNL1        0.0064
     13 C         140.7028  145.2871  162.9753 C.3     1  UNL1        0.1561
     14 O         140.3608  146.6683  162.5007 O.3     1  UNL1       -0.3780
     15 H         140.8202  146.8461  161.6651 H       1  UNL1        0.2109
     16 C         141.6311  144.4261  162.1709 C.ar    1  UNL1        0.0168
     17 C         141.1077  143.6505  160.9985 C.ar    1  UNL1       -0.0002
     18 C         142.0360  142.7896  160.1942 C.ar    1  UNL1        0.0112
     19 C         143.4876  142.7041  160.5623 C.ar    1  UNL1        0.0585
     20 CL        144.4159  141.8430  159.7580 Cl      1  UNL1       -0.0822
     21 C         144.0110  143.4796  161.7348 C.ar    1  UNL1        0.0225
     22 C         143.0827  144.3406  162.5391 C.ar    1  UNL1        0.0568
     23 CL        143.6060  145.1162  163.7116 Cl      1  UNL1       -0.0825
@<TRIPOS>BOND
     1     2     3    1
     2     3     4   ar
     3     4     5   ar
     4     5    10    1
     5    10    11    1
     6    11    12    1
     7     5     6   ar
     8     6     7   ar
     9     7     1    1
    10     1    13    1
    11    13    14    1
    12    13    16    1
    13    16    17   ar
    14    17    18   ar
    15    18    19   ar
    16    19    20    1
    17    19    21   ar
    18    21    22   ar
    19    22    23    1
    20     7     3   ar
    21    22    16   ar
    22    12    10    1
    23     2     8    1
    24     2     9    1
    25    14    15    1
@<TRIPOS>MOLECULE
*****
 23 25 0 0 0
SMALL
GASTEIGER

@<TRIPOS>ATOM
      1 C         138.6766  137.4308  165.2018 C.3     1  UNL1        0.1424
      2 N         137.7612  137.6344  162.0762 N.pl3   1  UNL1       -0.3288
      3 C         139.1592  137.7895  162.5973 C.ar    1  UNL1        0.1945
      4 N         140.3818  138.0653  161.7732 N.ar    1  UNL1       -0.2183
      5 C         141.5583  138.1422  162.7006 C.ar    1  UNL1        0.0786
      6 C         141.0627  137.9139  164.0979 C.ar    1  UNL1        0.0929
      7 N         139.5800  137.6958  164.0340 N.ar    1  UNL1       -0.2961
      8 H         137.5840  137.7133  161.1110 H       1  UNL1        0.1451
      9 H         137.0208  137.4538  162.6994 H       1  UNL1        0.1451
     10 C         142.9805  138.4019  162.3010 C.3     1  UNL1        0.0419
     11 C         144.2453  139.1959  162.4422 C.3     1  UNL1        0.0064
     12 C         144.1791  138.0576  161.4676 C.3     1  UNL1        0.0064
     13 C         138.1511  138.5741  166.0182 C.3     1  UNL1        0.1561
     14 O         137.1852  138.3157  167.1364 O.3     1  UNL1       -0.3780
     15 H         136.9470  139.1559  167.5585 H       1  UNL1        0.2109
     16 C         138.5914  139.9760  165.7164 C.ar    1  UNL1        0.0168
     17 C         137.9849  140.7210  164.5645 C.ar    1  UNL1       -0.0002
     18 C         138.4253  142.1228  164.2627 C.ar    1  UNL1        0.0112
     19 C         139.4721  142.7795  165.1130 C.ar    1  UNL1        0.0585
     20 CL        139.9125  144.1813  164.8112 Cl      1  UNL1       -0.0822
     21 C         140.0786  142.0344  166.2649 C.ar    1  UNL1        0.0225
     22 C         139.6383  140.6327  166.5666 C.ar    1  UNL1        0.0568
     23 CL        140.2448  139.8875  167.7186 Cl      1  UNL1       -0.0825
@<TRIPOS>BOND
     1     2     3    1
     2     3     4   ar
     3     4     5   ar
     4     5    10    1
     5    10    11    1
     6    11    12    1
     7     5     6   ar
     8     6     7   ar
     9     7     1    1
    10     1    13    1
    11    13    14    1
    12    13    16    1
    13    16    17   ar
    14    17    18   ar
    15    18    19   ar
    16    19    20    1
    17    19    21   ar
    18    21    22   ar
    19    22    23    1
    20     7     3   ar
    21    22    16   ar
    22    12    10    1
    23     2     8    1
    24     2     9    1
    25    14    15    1
@<TRIPOS>MOLECULE
*****
 23 25 0 0 0
SMALL
GASTEIGER

@<TRIPOS>ATOM
      1 C         138.0183  139.9627  164.6347 C.3     1  UNL1        0.1424
      2 N         138.6783  137.4664  162.6391 N.pl3   1  UNL1       -0.3288
      3 C         139.6194  138.0669  163.6409 C.ar    1  UNL1        0.1945
      4 N         141.0291  137.6254  163.9014 N.ar    1  UNL1       -0.2183
      5 C         141.5970  138.5000  164.9797 C.ar    1  UNL1        0.0786
      6 C         140.5382  139.4820  165.3856 C.ar    1  UNL1        0.0929
      7 N         139.3160  139.2143  164.5582 N.ar    1  UNL1       -0.2961
      8 H         138.9713  136.7112  162.0795 H       1  UNL1        0.1451
      9 H         137.7677  137.8276  162.5410 H       1  UNL1        0.1451
     10 C         142.9807  138.4086  165.5517 C.3     1  UNL1        0.0419
     11 C         144.4461  138.7161  165.4624 C.3     1  UNL1        0.0064
     12 C         143.9117  137.9429  166.6315 C.3     1  UNL1        0.0064
     13 C         137.8043  141.1816  163.7871 C.3     1  UNL1        0.1561
     14 O         136.5588  141.3118  162.9615 O.3     1  UNL1       -0.3780
     15 H         136.5782  142.1522  162.4774 H       1  UNL1        0.2109
     16 C         138.8360  142.2703  163.7651 C.ar    1  UNL1        0.0168
     17 C         138.7882  143.3695  164.7847 C.ar    1  UNL1       -0.0002
     18 C         139.8198  144.4582  164.7627 C.ar    1  UNL1        0.0112
     19 C         140.8992  144.4477  163.7211 C.ar    1  UNL1        0.0585
     20 CL        141.9308  145.5364  163.6991 Cl      1  UNL1       -0.0822
     21 C         140.9470  143.3485  162.7015 C.ar    1  UNL1        0.0225
     22 C         139.9154  142.2599  162.7236 C.ar    1  UNL1        0.0568
     23 CL        139.9631  141.1606  161.7040 Cl      1  UNL1       -0.0825
@<TRIPOS>BOND
     1     2     3    1
     2     3     4   ar
     3     4     5   ar
     4     5    10    1
     5    10    11    1
     6    11    12    1
     7     5     6   ar
     8     6     7   ar
     9     7     1    1
    10     1    13    1
    11    13    14    1
    12    13    16    1
    13    16    17   ar
    14    17    18   ar
    15    18    19   ar
    16    19    20    1
    17    19    21   ar
    18    21    22   ar
    19    22    23    1
    20     7     3   ar
    21    22    16   ar
    22    12    10    1
    23     2     8    1
    24     2     9    1
    25    14    15    1
@<TRIPOS>MOLECULE
*****
 23 25 0 0 0
SMALL
GASTEIGER

@<TRIPOS>ATOM
      1 C         140.1060  138.2758  164.1207 C.3     1  UNL1        0.1424
      2 N         137.7619  138.1900  161.8520 N.pl3   1  UNL1       -0.3288
      3 C         138.1688  139.3902  162.6543 C.ar    1  UNL1        0.1945
      4 N         137.5697  140.7618  162.5546 N.ar    1  UNL1       -0.2183
      5 C         138.2769  141.6490  163.5359 C.ar    1  UNL1        0.0786
      6 C         139.3131  140.8256  164.2420 C.ar    1  UNL1        0.0929
      7 N         139.2462  139.4297  163.6971 N.ar    1  UNL1       -0.2961
      8 H         137.0394  138.2640  161.1873 H       1  UNL1        0.1451
      9 H         138.2174  137.3281  161.9901 H       1  UNL1        0.1451
     10 C         137.9971  143.1039  163.7700 C.3     1  UNL1        0.0419
     11 C         137.8257  144.2587  164.7119 C.3     1  UNL1        0.0064
     12 C         137.6837  144.4691  163.2335 C.3     1  UNL1        0.0064
     13 C         141.3496  137.9445  163.3503 C.3     1  UNL1        0.1561
     14 O         141.4208  136.6781  162.5495 O.3     1  UNL1       -0.3780
     15 H         142.2866  136.6177  162.1163 H       1  UNL1        0.2109
     16 C         142.5221  138.8797  163.3805 C.ar    1  UNL1        0.0168
     17 C         142.8464  139.7149  162.1776 C.ar    1  UNL1       -0.0002
     18 C         144.0189  140.6500  162.2079 C.ar    1  UNL1        0.0112
     19 C         144.8669  140.7498  163.4411 C.ar    1  UNL1        0.0585
     20 CL        146.0394  141.6850  163.4713 Cl      1  UNL1       -0.0822
     21 C         144.5426  139.9146  164.6440 C.ar    1  UNL1        0.0225
     22 C         143.3701  138.9795  164.6137 C.ar    1  UNL1        0.0568
     23 CL        143.0457  138.1441  165.8167 Cl      1  UNL1       -0.0825
@<TRIPOS>BOND
     1     2     3    1
     2     3     4   ar
     3     4     5   ar
     4     5    10    1
     5    10    11    1
     6    11    12    1
     7     5     6   ar
     8     6     7   ar
     9     7     1    1
    10     1    13    1
    11    13    14    1
    12    13    16    1
    13    16    17   ar
    14    17    18   ar
    15    18    19   ar
    16    19    20    1
    17    19    21   ar
    18    21    22   ar
    19    22    23    1
    20     7     3   ar
    21    22    16   ar
    22    12    10    1
    23     2     8    1
    24     2     9    1
    25    14    15    1
@<TRIPOS>MOLECULE
*****
 23 25 0 0 0
SMALL
GASTEIGER

@<TRIPOS>ATOM
      1 C         144.8636  139.0212  165.0249 C.3     1  UNL1        0.1424
      2 N         144.3285  139.0660  161.8061 N.pl3   1  UNL1       -0.3288
      3 C         144.1571  140.2236  162.7445 C.ar    1  UNL1        0.1945
      4 N         143.7097  141.6049  162.3681 N.ar    1  UNL1       -0.2183
      5 C         143.6791  142.4381  163.6151 C.ar    1  UNL1        0.0786
      6 C         144.1077  141.5716  164.7622 C.ar    1  UNL1        0.0929
      7 N         144.4031  140.2030  164.2240 N.ar    1  UNL1       -0.2961
      8 H         144.1412  139.1786  160.8462 H       1  UNL1        0.1451
      9 H         144.6283  138.1936  162.1501 H       1  UNL1        0.1451
     10 C         143.2886  143.8839  163.7002 C.3     1  UNL1        0.0419
     11 C         143.6447  145.3104  163.9974 C.3     1  UNL1        0.0064
     12 C         142.2560  144.9615  163.5502 C.3     1  UNL1        0.0064
     13 C         143.9371  138.3785  166.0141 C.3     1  UNL1        0.1561
     14 O         144.4850  137.4699  167.0744 O.3     1  UNL1       -0.3780
     15 H         143.7580  137.1415  167.6261 H       1  UNL1        0.2109
     16 C         142.4625  138.6443  165.9429 C.ar    1  UNL1        0.0168
     17 C         141.6230  137.9447  164.9155 C.ar    1  UNL1       -0.0002
     18 C         140.1485  138.2105  164.8444 C.ar    1  UNL1        0.0112
     19 C         139.5135  139.1761  165.8007 C.ar    1  UNL1        0.0585
     20 CL        138.0389  139.4419  165.7296 Cl      1  UNL1       -0.0822
     21 C         140.3530  139.8757  166.8281 C.ar    1  UNL1        0.0225
     22 C         141.8275  139.6099  166.8992 C.ar    1  UNL1        0.0568
     23 CL        142.6671  140.3096  167.9267 Cl      1  UNL1       -0.0825
@<TRIPOS>BOND
     1     2     3    1
     2     3     4   ar
     3     4     5   ar
     4     5    10    1
     5    10    11    1
     6    11    12    1
     7     5     6   ar
     8     6     7   ar
     9     7     1    1
    10     1    13    1
    11    13    14    1
    12    13    16    1
    13    16    17   ar
    14    17    18   ar
    15    18    19   ar
    16    19    20    1
    17    19    21   ar
    18    21    22   ar
    19    22    23    1
    20     7     3   ar
    21    22    16   ar
    22    12    10    1
    23     2     8    1
    24     2     9    1
    25    14    15    1
@<TRIPOS>MOLECULE
*****
 23 25 0 0 0
SMALL
GASTEIGER

@<TRIPOS>ATOM
      1 C         144.9924  139.9830  163.9651 C.3     1  UNL1        0.1424
      2 N         144.6476  138.4188  161.1219 N.pl3   1  UNL1       -0.3288
      3 C         143.6070  138.5351  162.1960 C.ar    1  UNL1        0.1945
      4 N         142.2254  137.9529  162.1519 N.ar    1  UNL1       -0.2183
      5 C         141.5299  138.3120  163.4315 C.ar    1  UNL1        0.0786
      6 C         142.4818  139.1163  164.2665 C.ar    1  UNL1        0.0929
      7 N         143.7655  139.2541  163.5029 N.ar    1  UNL1       -0.2961
      8 H         144.4480  137.9235  160.2948 H       1  UNL1        0.1451
      9 H         145.5301  138.8377  161.2440 H       1  UNL1        0.1451
     10 C         140.1286  137.9335  163.8097 C.3     1  UNL1        0.0419
     11 C         138.7161  137.6195  163.4143 C.3     1  UNL1        0.0064
     12 C         139.1140  137.5918  164.8603 C.3     1  UNL1        0.0064
     13 C         145.2715  141.3709  163.4695 C.3     1  UNL1        0.1561
     14 O         146.6769  141.7830  163.1451 O.3     1  UNL1       -0.3780
     15 H         146.6816  142.7039  162.8404 H       1  UNL1        0.2109
     16 C         144.1453  142.3468  163.2982 C.ar    1  UNL1        0.0168
     17 C         143.5404  143.0122  164.4987 C.ar    1  UNL1       -0.0002
     18 C         142.4142  143.9880  164.3274 C.ar    1  UNL1        0.0112
     19 C         141.8930  144.2985  162.9556 C.ar    1  UNL1        0.0585
     20 CL        140.7667  145.2745  162.7843 Cl      1  UNL1       -0.0822
     21 C         142.4979  143.6332  161.7550 C.ar    1  UNL1        0.0225
     22 C         143.6241  142.6573  161.9263 C.ar    1  UNL1        0.0568
     23 CL        144.2291  141.9919  160.7258 Cl      1  UNL1       -0.0825
@<TRIPOS>BOND
     1     2     3    1
     2     3     4   ar
     3     4     5   ar
     4     5    10    1
     5    10    11    1
     6    11    12    1
     7     5     6   ar
     8     6     7   ar
     9     7     1    1
    10     1    13    1
    11    13    14    1
    12    13    16    1
    13    16    17   ar
    14    17    18   ar
    15    18    19   ar
    16    19    20    1
    17    19    21   ar
    18    21    22   ar
    19    22    23    1
    20     7     3   ar
    21    22    16   ar
    22    12    10    1
    23     2     8    1
    24     2     9    1
    25    14    15    1
