@<TRIPOS>MOLECULE
*****
 39 45 0 0 0
SMALL
GASTEIGER

@<TRIPOS>ATOM
      1 C         140.7575  141.1676  159.8520 C.3     1  UNL1        0.1558
      2 N         141.0889  140.0927  158.8596 N.3     1  UNL1       -0.2809
      3 C         142.4017  139.3723  158.9446 C.3     1  UNL1        0.1166
      4 C         143.3833  139.7267  160.0221 C.3     1  UNL1        0.0511
      5 C         143.0520  140.8015  161.0145 C.2     1  UNL1       -0.0037
      6 C         141.7391  141.5220  160.9295 C.2     1  UNL1        0.0784
      7 N         141.6905  142.5294  162.0397 N.2     1  UNL1       -0.2519
      8 C         142.9733  142.4316  162.8110 C.2     1  UNL1        0.0627
      9 C         143.4838  143.1769  164.0084 C.3     1  UNL1        0.0717
     10 C         144.8359  142.8543  164.5721 C.2     1  UNL1       -0.0198
     11 C         145.6773  141.7864  163.9385 C.2     1  UNL1       -0.0042
     12 C         145.1668  141.0411  162.7412 C.2     1  UNL1        0.0006
     13 C         143.8147  141.3637  162.1774 C.2     1  UNL1        0.0111
     14 H         141.0482  140.5225  157.9354 H       1  UNL1        0.1245
     15 C         137.5442  143.6799  163.2050 C.3     1  UNL1        0.0978
     16 C         138.5162  143.4048  162.0962 C.ar    1  UNL1        0.2369
     17 N         139.0572  142.0597  161.7116 N.ar    1  UNL1       -0.1928
     18 C         139.9931  142.2500  160.5550 C.ar    1  UNL1        0.2023
     19 N         140.0306  143.7127  160.2248 N.ar    1  UNL1       -0.0586
     20 O         139.1177  144.4264  161.1773 O.2     1  UNL1       -0.3373
     21 C         139.5105  141.1891  159.0187 C.ar    1  UNL1        0.0423
     22 C         138.3858  140.1991  159.0891 C.ar    1  UNL1        0.1194
     23 N         137.3494  140.6026  158.0825 N.ar    1  UNL1       -0.1679
     24 N         137.8335  141.8420  157.3900 N.ar    1  UNL1       -0.2476
     25 C         137.1093  142.5879  156.3089 C.3     1  UNL1        0.1537
     26 C         139.1692  142.2045  157.9686 C.ar    1  UNL1        0.0944
     27 C         142.7331  138.2974  157.9522 C.ar    1  UNL1        0.1319
     28 N         142.2720  136.8712  158.0104 N.ar    1  UNL1       -0.2282
     29 C         142.8377  136.1523  156.8216 C.ar    1  UNL1        0.1171
     30 C         143.6483  137.1342  156.0287 C.ar    1  UNL1        0.0942
     31 N         143.5837  138.4600  156.7275 N.ar    1  UNL1       -0.3385
     32 H         144.0225  139.2909  156.4338 H       1  UNL1        0.1672
     33 C         142.6292  134.7055  156.4848 C.ar    1  UNL1        0.1006
     34 C         141.7013  134.3210  155.3708 C.ar    1  UNL1        0.0230
     35 C         141.4928  132.8742  155.0340 C.ar    1  UNL1        0.0328
     36 C         142.2123  131.8121  155.8112 C.ar    1  UNL1        0.1592
     37 F         142.0038  130.3652  155.4744 F       1  UNL1       -0.2025
     38 C         143.1402  132.1966  156.9253 C.ar    1  UNL1        0.1284
     39 N         143.3487  133.6434  157.2621 N.ar    1  UNL1       -0.2399
@<TRIPOS>BOND
     1    15    16    1
     2    16    17   ar
     3    17    18   ar
     4     1    18    1
     5     1    21    1
     6    21    22   ar
     7    22    23   ar
     8    23    24   ar
     9    24    25    1
    10    24    26   ar
    11     1     2    1
    12     2     3    1
    13     3    27    1
    14    27    28   ar
    15    28    29   ar
    16    29    33    1
    17    33    34   ar
    18    34    35   ar
    19    35    36   ar
    20    36    37    1
    21    36    38   ar
    22    38    39   ar
    23    29    30   ar
    24    30    31   ar
    25     3     4    1
    26     4     5    1
    27     5     6    2
    28     6     7    1
    29     7     8    2
    30     8     9    1
    31     9    10    1
    32    10    11    2
    33    11    12    1
    34    12    13    2
    35    18    19   ar
    36    19    20   ar
    37    20    16   ar
    38     6     1    1
    39    13     8    1
    40    26    21   ar
    41    31    27   ar
    42    13     5    1
    43    39    33   ar
    44     2    14    1
    45    31    32    1
@<TRIPOS>MOLECULE
*****
 39 45 0 0 0
SMALL
GASTEIGER

@<TRIPOS>ATOM
      1 C         141.5812  142.0405  161.6453 C.3     1  UNL1        0.1558
      2 N         141.8266  141.3233  160.3509 N.3     1  UNL1       -0.2809
      3 C         142.3995  139.9370  160.3585 C.3     1  UNL1        0.1166
      4 C         142.7270  139.2680  161.6605 C.3     1  UNL1        0.0511
      5 C         142.4817  139.9852  162.9549 C.2     1  UNL1       -0.0037
      6 C         141.9087  141.3714  162.9472 C.2     1  UNL1        0.0784
      7 N         141.7768  141.8262  164.3705 N.2     1  UNL1       -0.2519
      8 C         142.2682  140.7210  165.2578 C.2     1  UNL1        0.0627
      9 C         142.3752  140.6038  166.7493 C.3     1  UNL1        0.0717
     10 C         142.9179  139.3487  167.3659 C.2     1  UNL1       -0.0198
     11 C         143.3535  138.2109  166.4910 C.2     1  UNL1       -0.0042
     12 C         143.2465  138.3281  164.9994 C.2     1  UNL1        0.0006
     13 C         142.7038  139.5832  164.3828 C.2     1  UNL1        0.0111
     14 H         142.4673  141.9037  159.8095 H       1  UNL1        0.1245
     15 C         138.7762  144.9164  165.0718 C.3     1  UNL1        0.0978
     16 C         139.8836  144.4422  164.1781 C.ar    1  UNL1        0.2369
     17 N         139.8634  143.2053  163.3297 N.ar    1  UNL1       -0.1928
     18 C         141.1728  143.1203  162.6031 C.ar    1  UNL1        0.2023
     19 N         142.0023  144.3045  163.0023 N.ar    1  UNL1       -0.0586
     20 O         141.2055  145.1216  163.9757 O.2     1  UNL1       -0.3373
     21 C         141.1119  143.0845  160.6760 C.ar    1  UNL1        0.0423
     22 C         139.6840  143.4462  160.3925 C.ar    1  UNL1        0.1194
     23 N         139.6777  144.5355  159.3612 N.ar    1  UNL1       -0.1679
     24 N         141.1016  144.8470  159.0073 N.ar    1  UNL1       -0.2476
     25 C         141.5589  145.8747  158.0151 C.3     1  UNL1        0.1537
     26 C         141.9880  143.9503  159.8198 C.ar    1  UNL1        0.0944
     27 C         142.6449  139.2197  159.0641 C.ar    1  UNL1        0.1319
     28 N         142.6104  137.7343  158.8591 N.ar    1  UNL1       -0.2282
     29 C         142.9121  137.4585  157.4158 C.ar    1  UNL1        0.1171
     30 C         143.1330  138.7735  156.7289 C.ar    1  UNL1        0.0942
     31 N         142.9679  139.8621  157.7477 N.ar    1  UNL1       -0.3385
     32 H         143.0561  140.8284  157.5814 H       1  UNL1        0.1672
     33 C         142.9807  136.1052  156.7724 C.ar    1  UNL1        0.1006
     34 C         142.7358  135.9617  155.2995 C.ar    1  UNL1        0.0230
     35 C         142.8044  134.6085  154.6561 C.ar    1  UNL1        0.0328
     36 C         143.1180  133.3987  155.4856 C.ar    1  UNL1        0.1592
     37 F         143.1867  132.0454  154.8422 F       1  UNL1       -0.2025
     38 C         143.3630  133.5422  156.9585 C.ar    1  UNL1        0.1284
     39 N         143.2944  134.8954  157.6019 N.ar    1  UNL1       -0.2399
@<TRIPOS>BOND
     1    15    16    1
     2    16    17   ar
     3    17    18   ar
     4     1    18    1
     5     1    21    1
     6    21    22   ar
     7    22    23   ar
     8    23    24   ar
     9    24    25    1
    10    24    26   ar
    11     1     2    1
    12     2     3    1
    13     3    27    1
    14    27    28   ar
    15    28    29   ar
    16    29    33    1
    17    33    34   ar
    18    34    35   ar
    19    35    36   ar
    20    36    37    1
    21    36    38   ar
    22    38    39   ar
    23    29    30   ar
    24    30    31   ar
    25     3     4    1
    26     4     5    1
    27     5     6    2
    28     6     7    1
    29     7     8    2
    30     8     9    1
    31     9    10    1
    32    10    11    2
    33    11    12    1
    34    12    13    2
    35    18    19   ar
    36    19    20   ar
    37    20    16   ar
    38     6     1    1
    39    13     8    1
    40    26    21   ar
    41    31    27   ar
    42    13     5    1
    43    39    33   ar
    44     2    14    1
    45    31    32    1
@<TRIPOS>MOLECULE
*****
 39 45 0 0 0
SMALL
GASTEIGER

@<TRIPOS>ATOM
      1 C         140.0254  141.8029  161.1235 C.3     1  UNL1        0.1558
      2 N         140.7570  141.1878  159.9674 N.3     1  UNL1       -0.2809
      3 C         141.0600  139.7187  159.9678 C.3     1  UNL1        0.1166
      4 C         140.6314  138.8648  161.1242 C.3     1  UNL1        0.0511
      5 C         139.8998  139.4799  162.2802 C.2     1  UNL1       -0.0037
      6 C         139.5968  140.9490  162.2798 C.2     1  UNL1        0.0784
      7 N         138.8662  141.2718  163.5494 N.2     1  UNL1       -0.2519
      8 C         138.7176  140.0023  164.3344 C.2     1  UNL1        0.0627
      9 C         138.0831  139.7116  165.6622 C.3     1  UNL1        0.0717
     10 C         138.0875  138.3135  166.2054 C.2     1  UNL1       -0.0198
     11 C         138.7263  137.2060  165.4210 C.2     1  UNL1       -0.0042
     12 C         139.3608  137.4967  164.0933 C.2     1  UNL1        0.0006
     13 C         139.3564  138.8948  163.5500 C.2     1  UNL1        0.0111
     14 H         141.6512  141.6728  159.8932 H       1  UNL1        0.1245
     15 C         139.0100  145.1380  165.0891 C.3     1  UNL1        0.0978
     16 C         138.8959  144.3726  163.8042 C.ar    1  UNL1        0.2369
     17 N         139.8681  143.3481  163.2989 N.ar    1  UNL1       -0.1928
     18 C         139.3627  142.8397  161.9814 C.ar    1  UNL1        0.2023
     19 N         138.0782  143.5499  161.6723 N.ar    1  UNL1       -0.0586
     20 O         137.7897  144.4974  162.7989 O.2     1  UNL1       -0.3373
     21 C         140.2238  143.0169  160.2651 C.ar    1  UNL1        0.0423
     22 C         141.0808  144.2020  160.5985 C.ar    1  UNL1        0.1194
     23 N         140.9867  145.1765  159.4620 N.ar    1  UNL1       -0.1679
     24 N         140.0716  144.5937  158.4262 N.ar    1  UNL1       -0.2476
     25 C         139.6942  145.2332  157.1230 C.3     1  UNL1        0.1537
     26 C         139.6001  143.2589  158.9225 C.ar    1  UNL1        0.0944
     27 C         141.7916  139.1035  158.8118 C.ar    1  UNL1        0.1319
     28 N         141.6540  137.6884  158.3339 N.ar    1  UNL1       -0.2282
     29 C         142.5666  137.5057  157.1575 C.ar    1  UNL1        0.1171
     30 C         143.2681  138.8079  156.9083 C.ar    1  UNL1        0.0942
     31 N         142.7891  139.7954  157.9308 N.ar    1  UNL1       -0.3385
     32 H         143.0786  140.7331  158.0097 H       1  UNL1        0.1672
     33 C         142.7461  136.2424  156.3687 C.ar    1  UNL1        0.1006
     34 C         142.3918  136.2114  154.9114 C.ar    1  UNL1        0.0230
     35 C         142.5712  134.9483  154.1226 C.ar    1  UNL1        0.0328
     36 C         143.1050  133.7162  154.7911 C.ar    1  UNL1        0.1592
     37 F         143.2845  132.4530  154.0023 F       1  UNL1       -0.2025
     38 C         143.4594  133.7472  156.2483 C.ar    1  UNL1        0.1284
     39 N         143.2799  135.0103  157.0371 N.ar    1  UNL1       -0.2399
@<TRIPOS>BOND
     1    15    16    1
     2    16    17   ar
     3    17    18   ar
     4     1    18    1
     5     1    21    1
     6    21    22   ar
     7    22    23   ar
     8    23    24   ar
     9    24    25    1
    10    24    26   ar
    11     1     2    1
    12     2     3    1
    13     3    27    1
    14    27    28   ar
    15    28    29   ar
    16    29    33    1
    17    33    34   ar
    18    34    35   ar
    19    35    36   ar
    20    36    37    1
    21    36    38   ar
    22    38    39   ar
    23    29    30   ar
    24    30    31   ar
    25     3     4    1
    26     4     5    1
    27     5     6    2
    28     6     7    1
    29     7     8    2
    30     8     9    1
    31     9    10    1
    32    10    11    2
    33    11    12    1
    34    12    13    2
    35    18    19   ar
    36    19    20   ar
    37    20    16   ar
    38     6     1    1
    39    13     8    1
    40    26    21   ar
    41    31    27   ar
    42    13     5    1
    43    39    33   ar
    44     2    14    1
    45    31    32    1
@<TRIPOS>MOLECULE
*****
 39 45 0 0 0
SMALL
GASTEIGER

@<TRIPOS>ATOM
      1 C         142.4517  142.6376  160.1440 C.3     1  UNL1        0.1558
      2 N         141.9214  143.2731  158.8930 N.3     1  UNL1       -0.2809
      3 C         140.7429  144.1984  158.9634 C.3     1  UNL1        0.1166
      4 C         140.0948  144.4882  160.2848 C.3     1  UNL1        0.0511
      5 C         140.6252  143.8528  161.5357 C.2     1  UNL1       -0.0037
      6 C         141.8036  142.9275  161.4653 C.2     1  UNL1        0.0784
      7 N         142.1031  142.4518  162.8560 N.2     1  UNL1       -0.2519
      8 C         141.1098  143.0831  163.7859 C.2     1  UNL1        0.0627
      9 C         140.9190  142.9814  165.2702 C.3     1  UNL1        0.0717
     10 C         139.8148  143.7456  165.9385 C.2     1  UNL1       -0.0198
     11 C         138.9013  144.6114  165.1225 C.2     1  UNL1       -0.0042
     12 C         139.0921  144.7132  163.6382 C.2     1  UNL1        0.0006
     13 C         140.1963  143.9490  162.9699 C.2     1  UNL1        0.0111
     14 H         141.6620  142.5132  158.2640 H       1  UNL1        0.1245
     15 C         144.1721  138.6839  163.1917 C.3     1  UNL1        0.0978
     16 C         144.1016  139.9832  162.4457 C.ar    1  UNL1        0.2369
     17 N         142.9563  140.4522  161.5981 N.ar    1  UNL1       -0.1928
     18 C         143.3108  141.8005  161.0448 C.ar    1  UNL1        0.2023
     19 N         144.6752  142.1649  161.5502 N.ar    1  UNL1       -0.0586
     20 O         145.1640  141.0417  162.4160 O.2     1  UNL1       -0.3373
     21 C         143.3982  142.0570  159.1355 C.ar    1  UNL1        0.0423
     22 C         143.4137  140.6354  158.6571 C.ar    1  UNL1        0.1194
     23 N         144.5205  140.4959  157.6542 N.ar    1  UNL1       -0.1679
     24 N         145.1890  141.8312  157.5129 N.ar    1  UNL1       -0.2476
     25 C         146.3476  142.1464  156.6139 C.3     1  UNL1        0.1537
     26 C         144.4954  142.7961  158.4283 C.ar    1  UNL1        0.0944
     27 C         140.2125  144.8339  157.7124 C.ar    1  UNL1        0.1319
     28 N         140.3832  146.2693  157.3122 N.ar    1  UNL1       -0.2282
     29 C         139.6945  146.4681  155.9945 C.ar    1  UNL1        0.1171
     30 C         139.0982  145.1555  155.5805 C.ar    1  UNL1        0.0942
     31 N         139.4183  144.1455  156.6422 N.ar    1  UNL1       -0.3385
     32 H         139.1536  143.1973  156.6375 H       1  UNL1        0.1672
     33 C         139.6160  147.7539  155.2258 C.ar    1  UNL1        0.1006
     34 C         140.2472  147.8562  153.8689 C.ar    1  UNL1        0.0230
     35 C         140.1687  149.1418  153.1003 C.ar    1  UNL1        0.0328
     36 C         139.4590  150.3252  153.6885 C.ar    1  UNL1        0.1592
     37 F         139.3804  151.6109  152.9198 F       1  UNL1       -0.2025
     38 C         138.8278  150.2229  155.0454 C.ar    1  UNL1        0.1284
     39 N         138.9063  148.9372  155.8140 N.ar    1  UNL1       -0.2399
@<TRIPOS>BOND
     1    15    16    1
     2    16    17   ar
     3    17    18   ar
     4     1    18    1
     5     1    21    1
     6    21    22   ar
     7    22    23   ar
     8    23    24   ar
     9    24    25    1
    10    24    26   ar
    11     1     2    1
    12     2     3    1
    13     3    27    1
    14    27    28   ar
    15    28    29   ar
    16    29    33    1
    17    33    34   ar
    18    34    35   ar
    19    35    36   ar
    20    36    37    1
    21    36    38   ar
    22    38    39   ar
    23    29    30   ar
    24    30    31   ar
    25     3     4    1
    26     4     5    1
    27     5     6    2
    28     6     7    1
    29     7     8    2
    30     8     9    1
    31     9    10    1
    32    10    11    2
    33    11    12    1
    34    12    13    2
    35    18    19   ar
    36    19    20   ar
    37    20    16   ar
    38     6     1    1
    39    13     8    1
    40    26    21   ar
    41    31    27   ar
    42    13     5    1
    43    39    33   ar
    44     2    14    1
    45    31    32    1
@<TRIPOS>MOLECULE
*****
 39 45 0 0 0
SMALL
GASTEIGER

@<TRIPOS>ATOM
      1 C         139.7146  141.6038  160.0196 C.3     1  UNL1        0.1558
      2 N         139.8027  140.7835  158.7669 N.3     1  UNL1       -0.2809
      3 C         139.6593  139.2919  158.8355 C.3     1  UNL1        0.1166
      4 C         139.4279  138.6207  160.1568 C.3     1  UNL1        0.0511
      5 C         139.3398  139.4409  161.4096 C.2     1  UNL1       -0.0037
      6 C         139.4832  140.9325  161.3410 C.2     1  UNL1        0.0784
      7 N         139.3521  141.4752  162.7332 N.2     1  UNL1       -0.2519
      8 C         139.1277  140.3191  163.6622 C.2     1  UNL1        0.0627
      9 C         138.9293  140.2488  165.1473 C.3     1  UNL1        0.0717
     10 C         138.7233  138.9212  165.8144 C.2     1  UNL1       -0.0198
     11 C         138.7157  137.6639  164.9963 C.2     1  UNL1       -0.0042
     12 C         138.9141  137.7342  163.5112 C.2     1  UNL1        0.0006
     13 C         139.1201  139.0618  162.8441 C.2     1  UNL1        0.0111
     14 H         140.7162  140.9728  158.3546 H       1  UNL1        0.1245
     15 C         141.2675  145.3818  163.3655 C.3     1  UNL1        0.0978
     16 C         140.4196  144.5383  162.4604 C.ar    1  UNL1        0.2369
     17 N         140.8775  143.3330  161.6937 N.ar    1  UNL1       -0.1928
     18 C         139.7059  142.8017  160.9225 C.ar    1  UNL1        0.2023
     19 N         138.5239  143.6784  161.2125 N.ar    1  UNL1       -0.0586
     20 O         138.9650  144.7517  162.1630 O.2     1  UNL1       -0.3373
     21 C         139.9430  142.6910  159.0119 C.ar    1  UNL1        0.0423
     22 C         138.9543  143.1672  157.9892 C.ar    1  UNL1        0.1194
     23 N         139.6005  144.2636  157.1952 N.ar    1  UNL1       -0.1679
     24 N         140.9885  144.4650  157.7270 N.ar    1  UNL1       -0.2476
     25 C         141.9891  145.4630  157.2244 C.3     1  UNL1        0.1537
     26 C         141.2002  143.4931  158.8499 C.ar    1  UNL1        0.0944
     27 C         139.7473  138.4716  157.5827 C.ar    1  UNL1        0.1319
     28 N         140.6790  137.3199  157.3467 N.ar    1  UNL1       -0.2282
     29 C         140.4266  136.7954  155.9642 C.ar    1  UNL1        0.1171
     30 C         139.3391  137.6230  155.3458 C.ar    1  UNL1        0.0942
     31 N         138.9193  138.6589  156.3461 N.ar    1  UNL1       -0.3385
     32 H         138.2225  139.3418  156.2142 H       1  UNL1        0.1672
     33 C         141.1372  135.6453  155.3142 C.ar    1  UNL1        0.1006
     34 C         142.1772  134.8790  156.0764 C.ar    1  UNL1        0.0230
     35 C         142.8878  133.7289  155.4265 C.ar    1  UNL1        0.0328
     36 C         142.5582  133.3452  154.0144 C.ar    1  UNL1        0.1592
     37 F         143.2687  132.1950  153.3644 F       1  UNL1       -0.2025
     38 C         141.5181  134.1115  153.2522 C.ar    1  UNL1        0.1284
     39 N         140.8076  135.2616  153.9021 N.ar    1  UNL1       -0.2399
@<TRIPOS>BOND
     1    15    16    1
     2    16    17   ar
     3    17    18   ar
     4     1    18    1
     5     1    21    1
     6    21    22   ar
     7    22    23   ar
     8    23    24   ar
     9    24    25    1
    10    24    26   ar
    11     1     2    1
    12     2     3    1
    13     3    27    1
    14    27    28   ar
    15    28    29   ar
    16    29    33    1
    17    33    34   ar
    18    34    35   ar
    19    35    36   ar
    20    36    37    1
    21    36    38   ar
    22    38    39   ar
    23    29    30   ar
    24    30    31   ar
    25     3     4    1
    26     4     5    1
    27     5     6    2
    28     6     7    1
    29     7     8    2
    30     8     9    1
    31     9    10    1
    32    10    11    2
    33    11    12    1
    34    12    13    2
    35    18    19   ar
    36    19    20   ar
    37    20    16   ar
    38     6     1    1
    39    13     8    1
    40    26    21   ar
    41    31    27   ar
    42    13     5    1
    43    39    33   ar
    44     2    14    1
    45    31    32    1
@<TRIPOS>MOLECULE
*****
 39 45 0 0 0
SMALL
GASTEIGER

@<TRIPOS>ATOM
      1 C         141.6241  141.9017  158.9637 C.3     1  UNL1        0.1558
      2 N         141.5221  140.6322  158.1712 N.3     1  UNL1       -0.2809
      3 C         142.2491  139.4024  158.6283 C.3     1  UNL1        0.1166
      4 C         143.0781  139.4420  159.8778 C.3     1  UNL1        0.0511
      5 C         143.1801  140.7115  160.6702 C.2     1  UNL1       -0.0037
      6 C         142.4531  141.9413  160.2132 C.2     1  UNL1        0.0784
      7 N         142.7396  143.0402  161.1932 N.2     1  UNL1       -0.2519
      8 C         143.6437  142.4895  162.2559 C.2     1  UNL1        0.0627
      9 C         144.2543  143.1127  163.4761 C.3     1  UNL1        0.0717
     10 C         145.1370  142.2966  164.3731 C.2     1  UNL1       -0.0198
     11 C         145.4093  140.8573  164.0499 C.2     1  UNL1       -0.0042
     12 C         144.7987  140.2342  162.8297 C.2     1  UNL1        0.0006
     13 C         143.9160  141.0503  161.9327 C.2     1  UNL1        0.0111
     14 H         141.8612  140.8430  157.2326 H       1  UNL1        0.1245
     15 C         139.7159  146.2183  161.3313 C.3     1  UNL1        0.0978
     16 C         140.5356  145.3139  160.4596 C.ar    1  UNL1        0.2369
     17 N         140.3956  143.8239  160.3568 N.ar    1  UNL1       -0.1928
     18 C         141.4127  143.3297  159.3714 C.ar    1  UNL1        0.2023
     19 N         142.1814  144.5141  158.8652 N.ar    1  UNL1       -0.0586
     20 O         141.6393  145.7404  159.5378 O.2     1  UNL1       -0.3373
     21 C         140.7217  142.3580  157.8558 C.ar    1  UNL1        0.0423
     22 C         141.1606  142.8962  156.5263 C.ar    1  UNL1        0.1194
     23 N         139.9320  143.2271  155.7317 N.ar    1  UNL1       -0.1679
     24 N         138.7339  142.8933  156.5702 N.ar    1  UNL1       -0.2476
     25 C         137.2996  143.0663  156.1668 C.3     1  UNL1        0.1537
     26 C         139.2219  142.3562  157.8830 C.ar    1  UNL1        0.0944
     27 C         142.1472  138.1328  157.8359 C.ar    1  UNL1        0.1319
     28 N         143.0671  136.9526  157.9395 N.ar    1  UNL1       -0.2282
     29 C         142.5959  135.9110  156.9684 C.ar    1  UNL1        0.1171
     30 C         141.3848  136.4475  156.2646 C.ar    1  UNL1        0.0942
     31 N         141.1075  137.8206  156.8007 N.ar    1  UNL1       -0.3385
     32 H         140.3721  138.4130  156.5221 H       1  UNL1        0.1672
     33 C         143.2254  134.5685  156.7410 C.ar    1  UNL1        0.1006
     34 C         144.0399  133.9286  157.8260 C.ar    1  UNL1        0.0230
     35 C         144.6693  132.5862  157.5987 C.ar    1  UNL1        0.0328
     36 C         144.4843  131.8837  156.2864 C.ar    1  UNL1        0.1592
     37 F         145.1138  130.5412  156.0591 F       1  UNL1       -0.2025
     38 C         143.6698  132.5236  155.2014 C.ar    1  UNL1        0.1284
     39 N         143.0404  133.8660  155.4287 N.ar    1  UNL1       -0.2399
@<TRIPOS>BOND
     1    15    16    1
     2    16    17   ar
     3    17    18   ar
     4     1    18    1
     5     1    21    1
     6    21    22   ar
     7    22    23   ar
     8    23    24   ar
     9    24    25    1
    10    24    26   ar
    11     1     2    1
    12     2     3    1
    13     3    27    1
    14    27    28   ar
    15    28    29   ar
    16    29    33    1
    17    33    34   ar
    18    34    35   ar
    19    35    36   ar
    20    36    37    1
    21    36    38   ar
    22    38    39   ar
    23    29    30   ar
    24    30    31   ar
    25     3     4    1
    26     4     5    1
    27     5     6    2
    28     6     7    1
    29     7     8    2
    30     8     9    1
    31     9    10    1
    32    10    11    2
    33    11    12    1
    34    12    13    2
    35    18    19   ar
    36    19    20   ar
    37    20    16   ar
    38     6     1    1
    39    13     8    1
    40    26    21   ar
    41    31    27   ar
    42    13     5    1
    43    39    33   ar
    44     2    14    1
    45    31    32    1
@<TRIPOS>MOLECULE
*****
 39 45 0 0 0
SMALL
GASTEIGER

@<TRIPOS>ATOM
      1 C         142.5173  139.8334  159.5822 C.3     1  UNL1        0.1558
      2 N         143.2128  140.2970  158.3367 N.3     1  UNL1       -0.2809
      3 C         144.1180  141.4922  158.3838 C.3     1  UNL1        0.1166
      4 C         144.3278  142.2237  159.6765 C.3     1  UNL1        0.0511
      5 C         143.6323  141.7600  160.9220 C.2     1  UNL1       -0.0037
      6 C         142.7270  140.5649  160.8748 C.2     1  UNL1        0.0784
      7 N         142.1806  140.3427  162.2540 N.2     1  UNL1       -0.2519
      8 C         142.7481  141.4005  163.1535 C.2     1  UNL1        0.0627
      9 C         142.5637  141.6792  164.6157 C.3     1  UNL1        0.0717
     10 C         143.2766  142.8339  165.2548 C.2     1  UNL1       -0.0198
     11 C         144.1738  143.7099  164.4316 C.2     1  UNL1       -0.0042
     12 C         144.3582  143.4311  162.9693 C.2     1  UNL1        0.0006
     13 C         143.6453  142.2765  162.3302 C.2     1  UNL1        0.0111
     14 H         142.4849  140.5058  157.6533 H       1  UNL1        0.1245
     15 C         138.3284  138.0747  162.2729 C.3     1  UNL1        0.0978
     16 C         139.7182  138.2089  161.7249 C.ar    1  UNL1        0.2369
     17 N         140.1900  139.2616  160.7661 N.ar    1  UNL1       -0.1928
     18 C         141.6436  139.0173  160.4881 C.ar    1  UNL1        0.2023
     19 N         142.0702  137.8136  161.2749 N.ar    1  UNL1       -0.0586
     20 O         140.8802  137.3140  162.0393 O.2     1  UNL1       -0.3373
     21 C         142.0041  138.8185  158.6042 C.ar    1  UNL1        0.0423
     22 C         140.6455  138.8150  157.9685 C.ar    1  UNL1        0.1194
     23 N         140.5612  137.6231  157.0615 N.ar    1  UNL1       -0.1679
     24 N         141.8677  136.8901  157.1367 N.ar    1  UNL1       -0.2476
     25 C         142.2205  135.6382  156.3896 C.3     1  UNL1        0.1537
     26 C         142.7595  137.6289  158.0901 C.ar    1  UNL1        0.0944
     27 C         144.8136  141.9558  157.1383 C.ar    1  UNL1        0.1319
     28 N         146.2865  141.8711  156.8675 N.ar    1  UNL1       -0.2282
     29 C         146.5416  142.4485  155.5068 C.ar    1  UNL1        0.1171
     30 C         145.2263  142.8901  154.9366 C.ar    1  UNL1        0.0942
     31 N         144.1584  142.5856  155.9450 N.ar    1  UNL1       -0.3385
     32 H         143.1963  142.7672  155.8417 H       1  UNL1        0.1672
     33 C         147.8774  142.5641  154.8343 C.ar    1  UNL1        0.1006
     34 C         148.0460  143.4721  153.6523 C.ar    1  UNL1        0.0230
     35 C         149.3818  143.5876  152.9798 C.ar    1  UNL1        0.0328
     36 C         150.5490  142.7952  153.4893 C.ar    1  UNL1        0.1592
     37 F         151.8849  142.9107  152.8168 F       1  UNL1       -0.2025
     38 C         150.3804  141.8872  154.6713 C.ar    1  UNL1        0.1284
     39 N         149.0446  141.7716  155.3438 N.ar    1  UNL1       -0.2399
@<TRIPOS>BOND
     1    15    16    1
     2    16    17   ar
     3    17    18   ar
     4     1    18    1
     5     1    21    1
     6    21    22   ar
     7    22    23   ar
     8    23    24   ar
     9    24    25    1
    10    24    26   ar
    11     1     2    1
    12     2     3    1
    13     3    27    1
    14    27    28   ar
    15    28    29   ar
    16    29    33    1
    17    33    34   ar
    18    34    35   ar
    19    35    36   ar
    20    36    37    1
    21    36    38   ar
    22    38    39   ar
    23    29    30   ar
    24    30    31   ar
    25     3     4    1
    26     4     5    1
    27     5     6    2
    28     6     7    1
    29     7     8    2
    30     8     9    1
    31     9    10    1
    32    10    11    2
    33    11    12    1
    34    12    13    2
    35    18    19   ar
    36    19    20   ar
    37    20    16   ar
    38     6     1    1
    39    13     8    1
    40    26    21   ar
    41    31    27   ar
    42    13     5    1
    43    39    33   ar
    44     2    14    1
    45    31    32    1
@<TRIPOS>MOLECULE
*****
 39 45 0 0 0
SMALL
GASTEIGER

@<TRIPOS>ATOM
      1 C         141.3180  141.3118  160.4508 C.3     1  UNL1        0.1558
      2 N         141.8395  140.4356  159.3507 N.3     1  UNL1       -0.2809
      3 C         141.7280  138.9440  159.4634 C.3     1  UNL1        0.1166
      4 C         141.0950  138.3286  160.6761 C.3     1  UNL1        0.0511
      5 C         140.5736  139.2049  161.7762 C.2     1  UNL1       -0.0037
      6 C         140.6851  140.6965  161.6636 C.2     1  UNL1        0.0784
      7 N         140.0856  141.3006  162.8988 N.2     1  UNL1       -0.2519
      8 C         139.6037  140.1825  163.7748 C.2     1  UNL1        0.0627
      9 C         138.9292  140.1764  165.1145 C.3     1  UNL1        0.0717
     10 C         138.5562  138.8750  165.7605 C.2     1  UNL1       -0.0198
     11 C         138.8578  137.5797  165.0667 C.2     1  UNL1       -0.0042
     12 C         139.5323  137.5858  163.7270 C.2     1  UNL1        0.0006
     13 C         139.9052  138.8872  163.0810 C.2     1  UNL1        0.0111
     14 H         142.8315  140.6498  159.2488 H       1  UNL1        0.1245
     15 C         141.6608  145.4617  163.6976 C.3     1  UNL1        0.0978
     16 C         141.1325  144.4588  162.7153 C.ar    1  UNL1        0.2369
     17 N         141.8825  143.2801  162.1690 N.ar    1  UNL1       -0.1928
     18 C         140.9750  142.5513  161.2230 C.ar    1  UNL1        0.2023
     19 N         139.6642  143.2794  161.1844 N.ar    1  UNL1       -0.0586
     20 O         139.7615  144.4583  162.1068 O.2     1  UNL1       -0.3373
     21 C         141.8319  142.3576  159.5063 C.ar    1  UNL1        0.0423
     22 C         143.2504  142.8348  159.4061 C.ar    1  UNL1        0.1194
     23 N         143.3125  143.8820  158.3339 N.ar    1  UNL1       -0.1679
     24 N         141.9325  144.0521  157.7715 N.ar    1  UNL1       -0.2476
     25 C         141.5369  144.9981  156.6767 C.3     1  UNL1        0.1537
     26 C         141.0173  143.1100  158.4960 C.ar    1  UNL1        0.0944
     27 C         142.2494  138.0677  158.3632 C.ar    1  UNL1        0.1319
     28 N         142.5603  136.6044  158.4740 N.ar    1  UNL1       -0.2282
     29 C         143.0545  136.1332  157.1385 C.ar    1  UNL1        0.1171
     30 C         143.0491  137.3052  156.2023 C.ar    1  UNL1        0.0942
     31 N         142.5516  138.5007  156.9593 N.ar    1  UNL1       -0.3385
     32 H         142.4424  139.4100  156.5980 H       1  UNL1        0.1672
     33 C         143.4796  134.7353  156.7988 C.ar    1  UNL1        0.1006
     34 C         143.1993  134.1767  155.4352 C.ar    1  UNL1        0.0230
     35 C         143.6243  132.7788  155.0955 C.ar    1  UNL1        0.0328
     36 C         144.3296  131.9397  156.1194 C.ar    1  UNL1        0.1592
     37 F         144.7546  130.5418  155.7797 F       1  UNL1       -0.2025
     38 C         144.6098  132.4983  157.4830 C.ar    1  UNL1        0.1284
     39 N         144.1848  133.8961  157.8227 N.ar    1  UNL1       -0.2399
@<TRIPOS>BOND
     1    15    16    1
     2    16    17   ar
     3    17    18   ar
     4     1    18    1
     5     1    21    1
     6    21    22   ar
     7    22    23   ar
     8    23    24   ar
     9    24    25    1
    10    24    26   ar
    11     1     2    1
    12     2     3    1
    13     3    27    1
    14    27    28   ar
    15    28    29   ar
    16    29    33    1
    17    33    34   ar
    18    34    35   ar
    19    35    36   ar
    20    36    37    1
    21    36    38   ar
    22    38    39   ar
    23    29    30   ar
    24    30    31   ar
    25     3     4    1
    26     4     5    1
    27     5     6    2
    28     6     7    1
    29     7     8    2
    30     8     9    1
    31     9    10    1
    32    10    11    2
    33    11    12    1
    34    12    13    2
    35    18    19   ar
    36    19    20   ar
    37    20    16   ar
    38     6     1    1
    39    13     8    1
    40    26    21   ar
    41    31    27   ar
    42    13     5    1
    43    39    33   ar
    44     2    14    1
    45    31    32    1
@<TRIPOS>MOLECULE
*****
 39 45 0 0 0
SMALL
GASTEIGER

@<TRIPOS>ATOM
      1 C         141.4707  141.3813  160.3853 C.3     1  UNL1        0.1558
      2 N         141.2572  142.0913  159.0813 N.3     1  UNL1       -0.2809
      3 C         140.5315  143.4037  159.0520 C.3     1  UNL1        0.1166
      4 C         140.0194  144.0062  160.3267 C.3     1  UNL1        0.0511
      5 C         140.2329  143.2963  161.6306 C.2     1  UNL1       -0.0037
      6 C         140.9586  141.9838  161.6599 C.2     1  UNL1        0.0784
      7 N         141.0189  141.5193  163.0849 N.2     1  UNL1       -0.2519
      8 C         140.3305  142.5446  163.9363 C.2     1  UNL1        0.0627
      9 C         140.0832  142.6200  165.4138 C.3     1  UNL1        0.0717
     10 C         139.3502  143.7938  165.9925 C.2     1  UNL1       -0.0198
     11 C         138.8644  144.8921  165.0937 C.2     1  UNL1       -0.0042
     12 C         139.1117  144.8166  163.6162 C.2     1  UNL1        0.0006
     13 C         139.8447  143.6429  163.0375 C.2     1  UNL1        0.0111
     14 H         140.7357  141.4530  158.4805 H       1  UNL1        0.1245
     15 C         141.4689  137.2220  163.6380 C.3     1  UNL1        0.0978
     16 C         141.9150  138.4242  162.8599 C.ar    1  UNL1        0.2369
     17 N         141.0678  139.2308  161.9209 N.ar    1  UNL1       -0.1928
     18 C         141.9158  140.3360  161.3648 C.ar    1  UNL1        0.2023
     19 N         143.2870  140.2126  161.9600 N.ar    1  UNL1       -0.0586
     20 O         143.2865  139.0310  162.8841 O.2     1  UNL1       -0.3373
     21 C         142.1374  140.4158  159.4508 C.ar    1  UNL1        0.0423
     22 C         143.4974  140.5773  158.8390 C.ar    1  UNL1        0.1194
     23 N         143.7616  139.3804  157.9741 N.ar    1  UNL1       -0.1679
     24 N         142.5650  138.4794  158.0514 N.ar    1  UNL1       -0.2476
     25 C         142.4009  137.1686  157.3409 C.3     1  UNL1        0.1537
     26 C         141.5611  139.1192  158.9641 C.ar    1  UNL1        0.0944
     27 C         140.3180  144.1138  157.7480 C.ar    1  UNL1        0.1319
     28 N         140.1343  145.5916  157.5686 N.ar    1  UNL1       -0.2282
     29 C         139.9534  145.8618  156.1043 C.ar    1  UNL1        0.1171
     30 C         140.0253  144.5510  155.3787 C.ar    1  UNL1        0.0942
     31 N         140.2506  143.4706  156.3946 N.ar    1  UNL1       -0.3385
     32 H         140.3389  142.5083  156.2061 H       1  UNL1        0.1672
     33 C         139.7383  147.2068  155.4759 C.ar    1  UNL1        0.1006
     34 C         140.3285  147.5089  154.1304 C.ar    1  UNL1        0.0230
     35 C         140.1135  148.8538  153.5019 C.ar    1  UNL1        0.0328
     36 C         139.3083  149.8966  154.2190 C.ar    1  UNL1        0.1592
     37 F         139.0932  151.2416  153.5906 F       1  UNL1       -0.2025
     38 C         138.7181  149.5945  155.5646 C.ar    1  UNL1        0.1284
     39 N         138.9331  148.2496  156.1930 N.ar    1  UNL1       -0.2399
@<TRIPOS>BOND
     1    15    16    1
     2    16    17   ar
     3    17    18   ar
     4     1    18    1
     5     1    21    1
     6    21    22   ar
     7    22    23   ar
     8    23    24   ar
     9    24    25    1
    10    24    26   ar
    11     1     2    1
    12     2     3    1
    13     3    27    1
    14    27    28   ar
    15    28    29   ar
    16    29    33    1
    17    33    34   ar
    18    34    35   ar
    19    35    36   ar
    20    36    37    1
    21    36    38   ar
    22    38    39   ar
    23    29    30   ar
    24    30    31   ar
    25     3     4    1
    26     4     5    1
    27     5     6    2
    28     6     7    1
    29     7     8    2
    30     8     9    1
    31     9    10    1
    32    10    11    2
    33    11    12    1
    34    12    13    2
    35    18    19   ar
    36    19    20   ar
    37    20    16   ar
    38     6     1    1
    39    13     8    1
    40    26    21   ar
    41    31    27   ar
    42    13     5    1
    43    39    33   ar
    44     2    14    1
    45    31    32    1
