@<TRIPOS>MOLECULE
*****
 32 36 0 0 0
SMALL
GASTEIGER

@<TRIPOS>ATOM
      1 N         141.8619  138.5906  156.4986 N.am    1  UNL1       -0.2743
      2 C         142.8404  138.0469  157.4970 C.3     1  UNL1        0.0984
      3 C         142.4886  138.0217  158.9549 C.3     1  UNL1        0.0480
      4 C         141.1581  138.5402  159.4145 C.ar    1  UNL1       -0.0161
      5 C         140.8063  138.5149  160.8724 C.ar    1  UNL1       -0.0041
      6 C         139.4759  139.0334  161.3319 C.ar    1  UNL1       -0.0003
      7 C         138.4973  139.5771  160.3334 C.ar    1  UNL1        0.0001
      8 C         138.8492  139.6023  158.8755 C.ar    1  UNL1        0.0042
      9 C         140.1796  139.0839  158.4160 C.ar    1  UNL1        0.0497
     10 C         140.5315  139.1091  156.9581 C.2     1  UNL1        0.2488
     11 O         139.5529  139.6528  155.9597 O.2     1  UNL1       -0.2699
     12 C         139.1240  139.0082  162.7898 C.ar    1  UNL1       -0.0000
     13 C         138.4570  140.1943  163.4210 C.ar    1  UNL1        0.0001
     14 C         138.1051  140.1691  164.8789 C.ar    1  UNL1        0.0045
     15 C         138.4202  138.9578  165.7057 C.ar    1  UNL1        0.0536
     16 C         139.0872  137.7717  165.0745 C.ar    1  UNL1        0.0045
     17 C         139.4391  137.7969  163.6166 C.ar    1  UNL1        0.0001
     18 C         138.0683  138.9327  167.1636 C.2     1  UNL1        0.2490
     19 O         136.9380  138.0736  167.6475 O.2     1  UNL1       -0.2699
     20 N         138.8468  139.7666  168.1375 N.am    1  UNL1       -0.2761
     21 C         138.6120  139.8437  169.6170 C.3     1  UNL1        0.0938
     22 C         139.6168  140.7946  170.1969 C.3     1  UNL1        0.0233
     23 C         140.4726  141.3051  169.0758 C.3     1  UNL1        0.0233
     24 C         139.9967  140.6697  167.8030 C.3     1  UNL1        0.0938
     25 C         142.2138  138.6158  155.0406 C.3     1  UNL1        0.1110
     26 C         143.1465  137.5856  154.4763 C.3     1  UNL1        0.0938
     27 C         143.8401  134.8788  156.1621 C.3     1  UNL1        0.0173
     28 C         142.9631  134.9609  154.9480 C.3     1  UNL1        0.0576
     29 C         142.2510  133.8132  154.2956 C.3     1  UNL1        0.0174
     30 C         141.4920  134.3481  153.1175 C.3     1  UNL1        0.0187
     31 C         141.7351  135.8263  153.0418 C.3     1  UNL1        0.0721
     32 N         142.6443  136.2051  154.1731 N.3     1  UNL1       -0.2725
@<TRIPOS>BOND
     1    28    27    1
     2    28    29    1
     3    29    30    1
     4    30    31    1
     5    31    32    1
     6    32    26    1
     7    26    25    1
     8    25     1    1
     9     1     2    1
    10     2     3    1
    11     3     4    1
    12     4     5   ar
    13     5     6   ar
    14     6    12    1
    15    12    13   ar
    16    13    14   ar
    17    14    15   ar
    18    15    18    1
    19    18    19    2
    20    18    20   am
    21    20    21    1
    22    21    22    1
    23    22    23    1
    24    23    24    1
    25    15    16   ar
    26    16    17   ar
    27     6     7   ar
    28     7     8   ar
    29     8     9   ar
    30     9    10    1
    31    10    11    2
    32    32    28    1
    33    10     1   am
    34     9     4   ar
    35    17    12   ar
    36    24    20    1
@<TRIPOS>MOLECULE
*****
 32 36 0 0 0
SMALL
GASTEIGER

@<TRIPOS>ATOM
      1 N         139.9887  140.0499  166.6916 N.am    1  UNL1       -0.2743
      2 C         141.1940  140.7626  166.1536 C.3     1  UNL1        0.0984
      3 C         141.5799  140.6011  164.7131 C.3     1  UNL1        0.0480
      4 C         140.7605  139.7270  163.8106 C.ar    1  UNL1       -0.0161
      5 C         141.1464  139.5655  162.3701 C.ar    1  UNL1       -0.0041
      6 C         140.3270  138.6914  161.4677 C.ar    1  UNL1       -0.0003
      7 C         139.1217  137.9788  162.0056 C.ar    1  UNL1        0.0001
      8 C         138.7358  138.1402  163.4461 C.ar    1  UNL1        0.0042
      9 C         139.5552  139.0143  164.3486 C.ar    1  UNL1        0.0497
     10 C         139.1693  139.1758  165.7891 C.2     1  UNL1        0.2488
     11 O         137.9641  138.4631  166.3271 O.2     1  UNL1       -0.2699
     12 C         140.7128  138.5300  160.0271 C.ar    1  UNL1       -0.0000
     13 C         142.1399  138.2494  159.6598 C.ar    1  UNL1        0.0001
     14 C         142.5258  138.0879  158.2194 C.ar    1  UNL1        0.0045
     15 C         141.4846  138.2070  157.1461 C.ar    1  UNL1        0.0536
     16 C         140.0576  138.4876  157.5133 C.ar    1  UNL1        0.0045
     17 C         139.6717  138.6490  158.9539 C.ar    1  UNL1        0.0001
     18 C         141.8705  138.0455  155.7056 C.2     1  UNL1        0.2490
     19 O         142.2512  139.2468  154.8920 O.2     1  UNL1       -0.2699
     20 N         141.8757  136.6828  155.0788 N.am    1  UNL1       -0.2761
     21 C         142.2368  136.3674  153.6575 C.3     1  UNL1        0.0938
     22 C         142.1050  134.8859  153.4635 C.3     1  UNL1        0.0233
     23 C         141.6625  134.2856  154.7649 C.3     1  UNL1        0.0233
     24 C         141.5207  135.3961  155.7632 C.3     1  UNL1        0.0938
     25 C         139.6028  140.2114  168.1321 C.3     1  UNL1        0.1110
     26 C         140.6225  139.9942  169.2106 C.3     1  UNL1        0.0938
     27 C         139.8594  142.9079  170.4668 C.3     1  UNL1        0.0173
     28 C         141.2403  142.4250  170.1351 C.3     1  UNL1        0.0576
     29 C         142.5129  143.1966  170.3226 C.3     1  UNL1        0.0174
     30 C         143.6501  142.3342  169.8611 C.3     1  UNL1        0.0187
     31 C         143.0804  141.0297  169.3883 C.3     1  UNL1        0.0721
     32 N         141.5910  141.0857  169.5577 N.3     1  UNL1       -0.2725
@<TRIPOS>BOND
     1    28    27    1
     2    28    29    1
     3    29    30    1
     4    30    31    1
     5    31    32    1
     6    32    26    1
     7    26    25    1
     8    25     1    1
     9     1     2    1
    10     2     3    1
    11     3     4    1
    12     4     5   ar
    13     5     6   ar
    14     6    12    1
    15    12    13   ar
    16    13    14   ar
    17    14    15   ar
    18    15    18    1
    19    18    19    2
    20    18    20   am
    21    20    21    1
    22    21    22    1
    23    22    23    1
    24    23    24    1
    25    15    16   ar
    26    16    17   ar
    27     6     7   ar
    28     7     8   ar
    29     8     9   ar
    30     9    10    1
    31    10    11    2
    32    32    28    1
    33    10     1   am
    34     9     4   ar
    35    17    12   ar
    36    24    20    1
@<TRIPOS>MOLECULE
*****
 32 36 0 0 0
SMALL
GASTEIGER

@<TRIPOS>ATOM
      1 N         141.4469  137.8420  157.3572 N.am    1  UNL1       -0.2743
      2 C         142.6728  137.6028  158.1880 C.3     1  UNL1        0.0984
      3 C         142.6477  137.8861  159.6607 C.3     1  UNL1        0.0480
      4 C         141.3967  138.4085  160.3029 C.ar    1  UNL1       -0.0161
      5 C         141.3717  138.6917  161.7756 C.ar    1  UNL1       -0.0041
      6 C         140.1208  139.2141  162.4177 C.ar    1  UNL1       -0.0003
      7 C         138.8949  139.4533  161.5870 C.ar    1  UNL1        0.0001
      8 C         138.9200  139.1700  160.1142 C.ar    1  UNL1        0.0042
      9 C         140.1709  138.6476  159.4722 C.ar    1  UNL1        0.0497
     10 C         140.1960  138.3644  157.9993 C.2     1  UNL1        0.2488
     11 O         138.9701  138.6036  157.1686 O.2     1  UNL1       -0.2699
     12 C         140.0957  139.4973  163.8906 C.ar    1  UNL1       -0.0000
     13 C         141.1688  138.9422  164.7794 C.ar    1  UNL1        0.0001
     14 C         141.1438  139.2254  166.2522 C.ar    1  UNL1        0.0045
     15 C         140.0455  140.0638  166.8362 C.ar    1  UNL1        0.0536
     16 C         138.9724  140.6190  165.9473 C.ar    1  UNL1        0.0045
     17 C         138.9975  140.3357  164.4744 C.ar    1  UNL1        0.0001
     18 C         140.0205  140.3470  168.3090 C.2     1  UNL1        0.2490
     19 O         138.9088  139.8054  169.1580 O.2     1  UNL1       -0.2699
     20 N         141.1070  141.1718  168.9327 N.am    1  UNL1       -0.2761
     21 C         141.2148  141.5360  170.3838 C.3     1  UNL1        0.0938
     22 C         142.4510  142.3665  170.5628 C.3     1  UNL1        0.0233
     23 C         143.1073  142.5157  169.2223 C.3     1  UNL1        0.0233
     24 C         142.2767  141.7773  168.2148 C.3     1  UNL1        0.0938
     25 C         141.4720  137.5587  155.8844 C.3     1  UNL1        0.1110
     26 C         142.4768  136.5971  155.3226 C.3     1  UNL1        0.0938
     27 C         143.4731  134.2669  157.3786 C.3     1  UNL1        0.0173
     28 C         142.6040  134.0661  156.1727 C.3     1  UNL1        0.0576
     29 C         142.0402  132.7589  155.7001 C.3     1  UNL1        0.0174
     30 C         141.2338  133.0221  154.4629 C.3     1  UNL1        0.0187
     31 C         141.2993  134.4919  154.1710 C.3     1  UNL1        0.0721
     32 N         142.1460  135.1372  155.2276 N.3     1  UNL1       -0.2725
@<TRIPOS>BOND
     1    28    27    1
     2    28    29    1
     3    29    30    1
     4    30    31    1
     5    31    32    1
     6    32    26    1
     7    26    25    1
     8    25     1    1
     9     1     2    1
    10     2     3    1
    11     3     4    1
    12     4     5   ar
    13     5     6   ar
    14     6    12    1
    15    12    13   ar
    16    13    14   ar
    17    14    15   ar
    18    15    18    1
    19    18    19    2
    20    18    20   am
    21    20    21    1
    22    21    22    1
    23    22    23    1
    24    23    24    1
    25    15    16   ar
    26    16    17   ar
    27     6     7   ar
    28     7     8   ar
    29     8     9   ar
    30     9    10    1
    31    10    11    2
    32    32    28    1
    33    10     1   am
    34     9     4   ar
    35    17    12   ar
    36    24    20    1
@<TRIPOS>MOLECULE
*****
 32 36 0 0 0
SMALL
GASTEIGER

@<TRIPOS>ATOM
      1 N         139.3917  140.1438  167.8234 N.am    1  UNL1       -0.2743
      2 C         140.4931  141.0311  167.3239 C.3     1  UNL1        0.0984
      3 C         141.0241  140.8563  165.9320 C.3     1  UNL1        0.0480
      4 C         140.4538  139.7940  165.0396 C.ar    1  UNL1       -0.0161
      5 C         140.9849  139.6191  163.6477 C.ar    1  UNL1       -0.0041
      6 C         140.4145  138.5569  162.7554 C.ar    1  UNL1       -0.0003
      7 C         139.3131  137.6695  163.2549 C.ar    1  UNL1        0.0001
      8 C         138.7821  137.8444  164.6468 C.ar    1  UNL1        0.0042
      9 C         139.3524  138.9066  165.5391 C.ar    1  UNL1        0.0497
     10 C         138.8214  139.0815  166.9311 C.2     1  UNL1        0.2488
     11 O         137.7200  138.1942  167.4306 O.2     1  UNL1       -0.2699
     12 C         140.9456  138.3820  161.3634 C.ar    1  UNL1       -0.0000
     13 C         142.3285  137.8414  161.1508 C.ar    1  UNL1        0.0001
     14 C         142.8596  137.6665  159.7589 C.ar    1  UNL1        0.0045
     15 C         142.0077  138.0321  158.5796 C.ar    1  UNL1        0.0536
     16 C         140.6247  138.5726  158.7923 C.ar    1  UNL1        0.0045
     17 C         140.0937  138.7476  160.1842 C.ar    1  UNL1        0.0001
     18 C         142.5387  137.8572  157.1878 C.2     1  UNL1        0.2490
     19 O         142.1507  136.6523  156.3829 O.2     1  UNL1       -0.2699
     20 N         143.4578  138.8871  156.6007 N.am    1  UNL1       -0.2761
     21 C         144.0648  138.8480  155.2296 C.3     1  UNL1        0.0938
     22 C         144.9134  140.0737  155.0632 C.3     1  UNL1        0.0233
     23 C         144.8308  140.8703  156.3315 C.3     1  UNL1        0.0233
     24 C         143.9312  140.1369  157.2817 C.3     1  UNL1        0.0938
     25 C         138.8607  140.3187  169.2154 C.3     1  UNL1        0.1110
     26 C         139.7956  140.2651  170.3871 C.3     1  UNL1        0.0938
     27 C         142.7110  138.8910  169.8751 C.3     1  UNL1        0.0173
     28 C         142.4512  140.3519  170.0949 C.3     1  UNL1        0.0576
     29 C         143.4859  141.4376  170.1181 C.3     1  UNL1        0.0174
     30 C         142.7853  142.7403  170.3677 C.3     1  UNL1        0.0187
     31 C         141.3176  142.4595  170.4989 C.3     1  UNL1        0.0721
     32 N         141.1112  140.9834  170.3303 N.3     1  UNL1       -0.2725
@<TRIPOS>BOND
     1    28    27    1
     2    28    29    1
     3    29    30    1
     4    30    31    1
     5    31    32    1
     6    32    26    1
     7    26    25    1
     8    25     1    1
     9     1     2    1
    10     2     3    1
    11     3     4    1
    12     4     5   ar
    13     5     6   ar
    14     6    12    1
    15    12    13   ar
    16    13    14   ar
    17    14    15   ar
    18    15    18    1
    19    18    19    2
    20    18    20   am
    21    20    21    1
    22    21    22    1
    23    22    23    1
    24    23    24    1
    25    15    16   ar
    26    16    17   ar
    27     6     7   ar
    28     7     8   ar
    29     8     9   ar
    30     9    10    1
    31    10    11    2
    32    32    28    1
    33    10     1   am
    34     9     4   ar
    35    17    12   ar
    36    24    20    1
@<TRIPOS>MOLECULE
*****
 32 36 0 0 0
SMALL
GASTEIGER

@<TRIPOS>ATOM
      1 N         139.5712  139.7688  165.9793 N.am    1  UNL1       -0.2743
      2 C         138.9847  138.4450  165.5877 C.3     1  UNL1        0.0984
      3 C         139.1754  137.9228  164.1946 C.3     1  UNL1        0.0480
      4 C         139.9528  138.7244  163.1930 C.ar    1  UNL1       -0.0161
      5 C         140.1435  138.2022  161.7998 C.ar    1  UNL1       -0.0041
      6 C         140.9209  139.0039  160.7983 C.ar    1  UNL1       -0.0003
      7 C         141.5074  140.3277  161.1899 C.ar    1  UNL1        0.0001
      8 C         141.3167  140.8499  162.5831 C.ar    1  UNL1        0.0042
      9 C         140.5394  140.0483  163.5846 C.ar    1  UNL1        0.0497
     10 C         140.3486  140.5705  164.9778 C.2     1  UNL1        0.2488
     11 O         140.9351  141.8943  165.3694 O.2     1  UNL1       -0.2699
     12 C         141.1116  138.4817  159.4051 C.ar    1  UNL1       -0.0000
     13 C         142.4899  138.1646  158.9052 C.ar    1  UNL1        0.0001
     14 C         142.6807  137.6424  157.5121 C.ar    1  UNL1        0.0045
     15 C         141.4933  137.4373  156.6187 C.ar    1  UNL1        0.0536
     16 C         140.1150  137.7544  157.1186 C.ar    1  UNL1        0.0045
     17 C         139.9242  138.2766  158.5119 C.ar    1  UNL1        0.0001
     18 C         141.6841  136.9152  155.2256 C.2     1  UNL1        0.2490
     19 O         141.5874  137.8482  154.0552 O.2     1  UNL1       -0.2699
     20 N         141.9716  135.4599  155.0029 N.am    1  UNL1       -0.2761
     21 C         142.1846  134.7964  153.6746 C.3     1  UNL1        0.0938
     22 C         142.4412  133.3391  153.9201 C.3     1  UNL1        0.0233
     23 C         142.3868  133.1018  155.4003 C.3     1  UNL1        0.0233
     24 C         142.0966  134.4126  156.0694 C.3     1  UNL1        0.0938
     25 C         139.3805  140.2910  167.3725 C.3     1  UNL1        0.1110
     26 C         140.3916  139.9787  168.4356 C.3     1  UNL1        0.0938
     27 C         139.7623  142.4994  170.4103 C.3     1  UNL1        0.0173
     28 C         141.0845  142.1855  169.7753 C.3     1  UNL1        0.0576
     29 C         142.3496  142.9752  169.9364 C.3     1  UNL1        0.0174
     30 C         143.4207  142.3045  169.1283 C.3     1  UNL1        0.0187
     31 C         142.8176  141.1004  168.4677 C.3     1  UNL1        0.0721
     32 N         141.3737  141.0269  168.8676 N.3     1  UNL1       -0.2725
@<TRIPOS>BOND
     1    28    27    1
     2    28    29    1
     3    29    30    1
     4    30    31    1
     5    31    32    1
     6    32    26    1
     7    26    25    1
     8    25     1    1
     9     1     2    1
    10     2     3    1
    11     3     4    1
    12     4     5   ar
    13     5     6   ar
    14     6    12    1
    15    12    13   ar
    16    13    14   ar
    17    14    15   ar
    18    15    18    1
    19    18    19    2
    20    18    20   am
    21    20    21    1
    22    21    22    1
    23    22    23    1
    24    23    24    1
    25    15    16   ar
    26    16    17   ar
    27     6     7   ar
    28     7     8   ar
    29     8     9   ar
    30     9    10    1
    31    10    11    2
    32    32    28    1
    33    10     1   am
    34     9     4   ar
    35    17    12   ar
    36    24    20    1
@<TRIPOS>MOLECULE
*****
 32 36 0 0 0
SMALL
GASTEIGER

@<TRIPOS>ATOM
      1 N         138.1928  142.8441  162.1817 N.am    1  UNL1       -0.2743
      2 C         137.8212  141.4493  162.5898 C.3     1  UNL1        0.0984
      3 C         138.3144  140.2782  161.7928 C.3     1  UNL1        0.0480
      4 C         139.1791  140.5018  160.5877 C.ar    1  UNL1       -0.0161
      5 C         139.6723  139.3306  159.7907 C.ar    1  UNL1       -0.0041
      6 C         140.5370  139.5543  158.5857 C.ar    1  UNL1       -0.0003
      7 C         140.9086  140.9490  158.1776 C.ar    1  UNL1        0.0001
      8 C         140.4154  142.1202  158.9745 C.ar    1  UNL1        0.0042
      9 C         139.5507  141.8965  160.1796 C.ar    1  UNL1        0.0497
     10 C         139.0575  143.0677  160.9766 C.2     1  UNL1        0.2488
     11 O         139.4291  144.4625  160.5686 O.2     1  UNL1       -0.2699
     12 C         141.0302  138.3831  157.7886 C.ar    1  UNL1       -0.0000
     13 C         142.4658  137.9599  157.8875 C.ar    1  UNL1        0.0001
     14 C         142.9591  136.7888  157.0905 C.ar    1  UNL1        0.0045
     15 C         142.0166  136.0408  156.1946 C.ar    1  UNL1        0.0536
     16 C         140.5810  136.4641  156.0958 C.ar    1  UNL1        0.0045
     17 C         140.0878  137.6352  156.8929 C.ar    1  UNL1        0.0001
     18 C         142.5098  134.8697  155.3976 C.2     1  UNL1        0.2490
     19 O         142.1522  134.7463  153.9462 O.2     1  UNL1       -0.2699
     20 N         143.3607  133.8220  156.0521 N.am    1  UNL1       -0.2761
     21 C         143.9241  132.6015  155.3866 C.3     1  UNL1        0.0938
     22 C         144.7091  131.8360  156.4102 C.3     1  UNL1        0.0233
     23 C         144.6308  132.5834  157.7084 C.3     1  UNL1        0.0233
     24 C         143.7975  133.8108  157.4871 C.3     1  UNL1        0.0938
     25 C         137.6996  144.0152  162.9787 C.3     1  UNL1        0.1110
     26 C         138.4698  144.4845  164.1773 C.3     1  UNL1        0.0938
     27 C         139.8913  141.9876  165.7246 C.3     1  UNL1        0.0173
     28 C         140.5984  143.0807  164.9794 C.3     1  UNL1        0.0576
     29 C         142.0829  143.2179  164.8146 C.3     1  UNL1        0.0174
     30 C         142.3470  144.4505  164.0015 C.3     1  UNL1        0.0187
     31 C         141.0257  145.0750  163.6638 C.3     1  UNL1        0.0721
     32 N         139.9449  144.2284  164.2682 N.3     1  UNL1       -0.2725
@<TRIPOS>BOND
     1    28    27    1
     2    28    29    1
     3    29    30    1
     4    30    31    1
     5    31    32    1
     6    32    26    1
     7    26    25    1
     8    25     1    1
     9     1     2    1
    10     2     3    1
    11     3     4    1
    12     4     5   ar
    13     5     6   ar
    14     6    12    1
    15    12    13   ar
    16    13    14   ar
    17    14    15   ar
    18    15    18    1
    19    18    19    2
    20    18    20   am
    21    20    21    1
    22    21    22    1
    23    22    23    1
    24    23    24    1
    25    15    16   ar
    26    16    17   ar
    27     6     7   ar
    28     7     8   ar
    29     8     9   ar
    30     9    10    1
    31    10    11    2
    32    32    28    1
    33    10     1   am
    34     9     4   ar
    35    17    12   ar
    36    24    20    1
@<TRIPOS>MOLECULE
*****
 32 36 0 0 0
SMALL
GASTEIGER

@<TRIPOS>ATOM
      1 N         138.6732  142.4874  157.5869 N.am    1  UNL1       -0.2743
      2 C         139.4440  143.5064  158.3727 C.3     1  UNL1        0.0984
      3 C         139.6363  143.3264  159.8493 C.3     1  UNL1        0.0480
      4 C         139.0577  142.1272  160.5403 C.ar    1  UNL1       -0.0161
      5 C         139.2500  141.9471  162.0170 C.ar    1  UNL1       -0.0041
      6 C         138.6714  140.7481  162.7079 C.ar    1  UNL1       -0.0003
      7 C         137.9006  139.7290  161.9221 C.ar    1  UNL1        0.0001
      8 C         137.7083  139.9091  160.4455 C.ar    1  UNL1        0.0042
      9 C         138.2869  141.1082  159.7546 C.ar    1  UNL1        0.0497
     10 C         138.0946  141.2883  158.2778 C.2     1  UNL1        0.2488
     11 O         137.3237  140.2693  157.4921 O.2     1  UNL1       -0.2699
     12 C         138.8637  140.5679  164.1846 C.ar    1  UNL1       -0.0000
     13 C         138.4516  139.2850  164.8436 C.ar    1  UNL1        0.0001
     14 C         138.6439  139.1048  166.3202 C.ar    1  UNL1        0.0045
     15 C         139.2482  140.2076  167.1380 C.ar    1  UNL1        0.0536
     16 C         139.6603  141.4906  166.4790 C.ar    1  UNL1        0.0045
     17 C         139.4680  141.6707  165.0023 C.ar    1  UNL1        0.0001
     18 C         139.4405  140.0275  168.6146 C.2     1  UNL1        0.2490
     19 O         138.2946  139.5752  169.4704 O.2     1  UNL1       -0.2699
     20 N         140.7786  140.2997  169.2355 N.am    1  UNL1       -0.2761
     21 C         141.1197  140.1642  170.6899 C.3     1  UNL1        0.0938
     22 C         142.5624  140.5359  170.8642 C.3     1  UNL1        0.0233
     23 C         143.1130  140.9011  169.5176 C.3     1  UNL1        0.0233
     24 C         142.0105  140.7551  168.5110 C.3     1  UNL1        0.0938
     25 C         138.4809  142.6675  156.1102 C.3     1  UNL1        0.1110
     26 C         139.5390  143.3483  155.2936 C.3     1  UNL1        0.0938
     27 C         142.1192  145.2266  154.6125 C.3     1  UNL1        0.0173
     28 C         140.7148  145.7045  154.8341 C.3     1  UNL1        0.0576
     29 C         140.2498  147.1296  154.7816 C.3     1  UNL1        0.0174
     30 C         138.7763  147.1469  155.0623 C.3     1  UNL1        0.0187
     31 C         138.3308  145.7326  155.2882 C.3     1  UNL1        0.0721
     32 N         139.5288  144.8411  155.1472 N.3     1  UNL1       -0.2725
@<TRIPOS>BOND
     1    28    27    1
     2    28    29    1
     3    29    30    1
     4    30    31    1
     5    31    32    1
     6    32    26    1
     7    26    25    1
     8    25     1    1
     9     1     2    1
    10     2     3    1
    11     3     4    1
    12     4     5   ar
    13     5     6   ar
    14     6    12    1
    15    12    13   ar
    16    13    14   ar
    17    14    15   ar
    18    15    18    1
    19    18    19    2
    20    18    20   am
    21    20    21    1
    22    21    22    1
    23    22    23    1
    24    23    24    1
    25    15    16   ar
    26    16    17   ar
    27     6     7   ar
    28     7     8   ar
    29     8     9   ar
    30     9    10    1
    31    10    11    2
    32    32    28    1
    33    10     1   am
    34     9     4   ar
    35    17    12   ar
    36    24    20    1
@<TRIPOS>MOLECULE
*****
 32 36 0 0 0
SMALL
GASTEIGER

@<TRIPOS>ATOM
      1 N         138.4387  140.4120  164.6422 N.am    1  UNL1       -0.2743
      2 C         137.8772  141.8010  164.7144 C.3     1  UNL1        0.0984
      3 C         138.0460  142.7393  163.5564 C.3     1  UNL1        0.0480
      4 C         138.7762  142.2886  162.3260 C.ar    1  UNL1       -0.0161
      5 C         138.9449  143.2269  161.1680 C.ar    1  UNL1       -0.0041
      6 C         139.6751  142.7761  159.9378 C.ar    1  UNL1       -0.0003
      7 C         140.2366  141.3870  159.8655 C.ar    1  UNL1        0.0001
      8 C         140.0679  140.4487  161.0236 C.ar    1  UNL1        0.0042
      9 C         139.3377  140.8995  162.2538 C.ar    1  UNL1        0.0497
     10 C         139.1689  139.9612  163.4119 C.2     1  UNL1        0.2488
     11 O         139.7304  138.5721  163.3397 O.2     1  UNL1       -0.2699
     12 C         139.8439  143.7144  158.7796 C.ar    1  UNL1       -0.0000
     13 C         140.8085  144.8591  158.8762 C.ar    1  UNL1        0.0001
     14 C         140.9773  145.7973  157.7182 C.ar    1  UNL1        0.0045
     15 C         140.1814  145.5910  156.4635 C.ar    1  UNL1        0.0536
     16 C         139.2168  144.4464  156.3670 C.ar    1  UNL1        0.0045
     17 C         139.0480  143.5081  157.5251 C.ar    1  UNL1        0.0001
     18 C         140.3502  146.5293  155.3055 C.2     1  UNL1        0.2490
     19 O         141.1494  146.1071  154.1084 O.2     1  UNL1       -0.2699
     20 N         139.7197  147.8898  155.3445 N.am    1  UNL1       -0.2761
     21 C         139.8013  148.9306  154.2674 C.3     1  UNL1        0.0938
     22 C         139.0290  150.1325  154.7246 C.3     1  UNL1        0.0233
     23 C         138.4702  149.8346  156.0844 C.3     1  UNL1        0.0233
     24 C         138.8970  148.4485  156.4674 C.3     1  UNL1        0.0938
     25 C         138.2700  139.4736  165.8003 C.3     1  UNL1        0.1110
     26 C         139.3882  139.2854  166.7821 C.3     1  UNL1        0.0938
     27 C         141.1076  142.0380  166.4411 C.3     1  UNL1        0.0173
     28 C         140.4206  141.5769  167.6922 C.3     1  UNL1        0.0576
     29 C         140.4033  142.3000  169.0063 C.3     1  UNL1        0.0174
     30 C         139.6022  141.4817  169.9752 C.3     1  UNL1        0.0187
     31 C         139.1245  140.2528  169.2599 C.3     1  UNL1        0.0721
     32 N         139.6303  140.3116  167.8490 N.3     1  UNL1       -0.2725
@<TRIPOS>BOND
     1    28    27    1
     2    28    29    1
     3    29    30    1
     4    30    31    1
     5    31    32    1
     6    32    26    1
     7    26    25    1
     8    25     1    1
     9     1     2    1
    10     2     3    1
    11     3     4    1
    12     4     5   ar
    13     5     6   ar
    14     6    12    1
    15    12    13   ar
    16    13    14   ar
    17    14    15   ar
    18    15    18    1
    19    18    19    2
    20    18    20   am
    21    20    21    1
    22    21    22    1
    23    22    23    1
    24    23    24    1
    25    15    16   ar
    26    16    17   ar
    27     6     7   ar
    28     7     8   ar
    29     8     9   ar
    30     9    10    1
    31    10    11    2
    32    32    28    1
    33    10     1   am
    34     9     4   ar
    35    17    12   ar
    36    24    20    1
@<TRIPOS>MOLECULE
*****
 32 36 0 0 0
SMALL
GASTEIGER

@<TRIPOS>ATOM
      1 N         144.2519  141.1937  157.3660 N.am    1  UNL1       -0.2743
      2 C         144.2476  142.4730  158.1492 C.3     1  UNL1        0.0984
      3 C         143.6571  142.5065  159.5276 C.3     1  UNL1        0.0480
      4 C         143.0708  141.2607  160.1230 C.ar    1  UNL1       -0.0161
      5 C         142.4803  141.2943  161.5014 C.ar    1  UNL1       -0.0041
      6 C         141.8941  140.0485  162.0967 C.ar    1  UNL1       -0.0003
      7 C         141.8985  138.7692  161.3135 C.ar    1  UNL1        0.0001
      8 C         142.4890  138.7356  159.9351 C.ar    1  UNL1        0.0042
      9 C         143.0752  139.9814  159.3398 C.ar    1  UNL1        0.0497
     10 C         143.6657  139.9479  157.9613 C.2     1  UNL1        0.2488
     11 O         143.6701  138.6686  157.1782 O.2     1  UNL1       -0.2699
     12 C         141.3036  140.0820  163.4752 C.ar    1  UNL1       -0.0000
     13 C         142.0429  139.4609  164.6231 C.ar    1  UNL1        0.0001
     14 C         141.4524  139.4943  166.0015 C.ar    1  UNL1        0.0045
     15 C         140.1226  140.1490  166.2321 C.ar    1  UNL1        0.0536
     16 C         139.3833  140.7701  165.0842 C.ar    1  UNL1        0.0045
     17 C         139.9738  140.7366  163.7057 C.ar    1  UNL1        0.0001
     18 C         139.5321  140.1824  167.6106 C.2     1  UNL1        0.2490
     19 O         138.5360  139.1404  168.0253 O.2     1  UNL1       -0.2699
     20 N         139.9376  141.2579  168.5743 N.am    1  UNL1       -0.2761
     21 C         139.4350  141.4190  169.9784 C.3     1  UNL1        0.0938
     22 C         140.1038  142.6218  170.5751 C.3     1  UNL1        0.0233
     23 C         141.0198  143.2041  169.5398 C.3     1  UNL1        0.0233
     24 C         140.9171  142.3612  168.3033 C.3     1  UNL1        0.0938
     25 C         144.8425  141.1602  155.9875 C.3     1  UNL1        0.1110
     26 C         146.3248  141.2967  155.8031 C.3     1  UNL1        0.0938
     27 C         149.4581  141.6625  154.9676 C.3     1  UNL1        0.0173
     28 C         148.3117  142.4961  154.4770 C.3     1  UNL1        0.0576
     29 C         148.4042  143.6443  153.5162 C.3     1  UNL1        0.0174
     30 C         147.0211  144.1858  153.3064 C.3     1  UNL1        0.0187
     31 C         146.0739  143.3723  154.1376 C.3     1  UNL1        0.0721
     32 N         146.8714  142.3280  154.8610 N.3     1  UNL1       -0.2725
@<TRIPOS>BOND
     1    28    27    1
     2    28    29    1
     3    29    30    1
     4    30    31    1
     5    31    32    1
     6    32    26    1
     7    26    25    1
     8    25     1    1
     9     1     2    1
    10     2     3    1
    11     3     4    1
    12     4     5   ar
    13     5     6   ar
    14     6    12    1
    15    12    13   ar
    16    13    14   ar
    17    14    15   ar
    18    15    18    1
    19    18    19    2
    20    18    20   am
    21    20    21    1
    22    21    22    1
    23    22    23    1
    24    23    24    1
    25    15    16   ar
    26    16    17   ar
    27     6     7   ar
    28     7     8   ar
    29     8     9   ar
    30     9    10    1
    31    10    11    2
    32    32    28    1
    33    10     1   am
    34     9     4   ar
    35    17    12   ar
    36    24    20    1
