@<TRIPOS>MOLECULE
*****
 28 31 0 0 0
SMALL
GASTEIGER

@<TRIPOS>ATOM
      1 O         142.2199  138.2122  164.1699 O.2     1  UNL1       -0.2522
      2 C         141.2158  138.6178  163.1321 C.2     1  UNL1        0.3078
      3 N         139.9099  139.2265  163.5494 N.am    1  UNL1       -0.2681
      4 N         141.5175  138.4148  161.6768 N.am    1  UNL1       -0.2611
      5 C         142.8233  137.8061  161.2594 C.3     1  UNL1        0.1123
      6 C         143.1250  137.6031  159.8041 C.3     1  UNL1        0.0940
      7 N         142.1208  138.0087  158.7663 N.3     1  UNL1       -0.2697
      8 C         140.8150  138.6173  159.1837 C.3     1  UNL1        0.0940
      9 C         140.5133  138.8204  160.6389 C.3     1  UNL1        0.1123
     10 H         139.2508  139.4927  162.8683 H       1  UNL1        0.1564
     11 C         139.6082  139.4296  165.0047 C.ar    1  UNL1        0.0525
     12 C         140.4463  140.3686  165.8205 C.ar    1  UNL1        0.0156
     13 C         140.1446  140.5717  167.2757 C.ar    1  UNL1        0.0135
     14 C         139.0047  139.8356  167.9152 C.ar    1  UNL1        0.0683
     15 CL        138.7030  140.0387  169.3704 Cl      1  UNL1       -0.0814
     16 C         138.1665  138.8965  167.0994 C.ar    1  UNL1        0.0694
     17 CL        137.0266  138.1605  167.7388 Cl      1  UNL1       -0.0813
     18 C         138.4683  138.6935  165.6441 C.ar    1  UNL1        0.0270
     19 C         142.4225  137.8056  157.3110 C.3     1  UNL1        0.0735
     20 C         142.2885  136.4421  156.7004 C.3     1  UNL1        0.0320
     21 C         141.1748  136.1582  155.7365 C.3     1  UNL1        0.0042
     22 C         141.0407  134.7947  155.1259 C.3     1  UNL1        0.0174
     23 C         142.0204  133.7151  155.4792 C.3     1  UNL1        0.0720
     24 N         143.1341  133.9990  156.4431 N.3     1  UNL1       -0.2739
     25 C         143.2681  135.3626  157.0537 C.3     1  UNL1        0.0734
     26 C         144.1137  132.9195  156.7964 C.3     1  UNL1        0.0576
     27 C         145.0825  131.8552  156.3735 C.3     1  UNL1        0.0173
     28 C         144.8417  132.1138  157.8313 C.3     1  UNL1        0.0173
@<TRIPOS>BOND
     1     1     2    2
     2     2     3   am
     3     3    11    1
     4    11    12   ar
     5    12    13   ar
     6    13    14   ar
     7    14    15    1
     8    14    16   ar
     9    16    17    1
    10    16    18   ar
    11     2     4   am
    12     4     5    1
    13     5     6    1
    14     6     7    1
    15     7    19    1
    16    20    19    1
    17    20    21    1
    18    21    22    1
    19    22    23    1
    20    23    24    1
    21    24    26    1
    22    26    27    1
    23    27    28    1
    24    24    25    1
    25     7     8    1
    26     8     9    1
    27    18    11   ar
    28     9     4    1
    29    25    20    1
    30    28    26    1
    31     3    10    1
@<TRIPOS>MOLECULE
*****
 28 31 0 0 0
SMALL
GASTEIGER

@<TRIPOS>ATOM
      1 O         138.6774  139.5072  162.4879 O.2     1  UNL1       -0.2522
      2 C         140.0659  138.9497  162.3824 C.2     1  UNL1        0.3078
      3 N         140.8782  138.7202  163.6224 N.am    1  UNL1       -0.2681
      4 N         140.6422  138.6217  161.0369 N.am    1  UNL1       -0.2611
      5 C         139.8299  138.8512  159.7970 C.3     1  UNL1        0.1123
      6 C         140.4062  138.5232  158.4515 C.3     1  UNL1        0.0940
      7 N         141.7947  137.9657  158.3460 N.3     1  UNL1       -0.2697
      8 C         142.6070  137.7362  159.5859 C.3     1  UNL1        0.0940
      9 C         142.0307  138.0642  160.9314 C.3     1  UNL1        0.1123
     10 H         141.7895  138.3543  163.5531 H       1  UNL1        0.1564
     11 C         140.3019  139.0482  164.9679 C.ar    1  UNL1        0.0525
     12 C         140.9657  140.0737  165.8383 C.ar    1  UNL1        0.0156
     13 C         140.3895  140.4017  167.1838 C.ar    1  UNL1        0.0135
     14 C         139.1494  139.7042  167.6588 C.ar    1  UNL1        0.0683
     15 CL        138.5731  140.0322  169.0044 Cl      1  UNL1       -0.0814
     16 C         138.4856  138.6787  166.7884 C.ar    1  UNL1        0.0694
     17 CL        137.2455  137.9811  167.2635 Cl      1  UNL1       -0.0813
     18 C         139.0619  138.3507  165.4430 C.ar    1  UNL1        0.0270
     19 C         142.3710  137.6376  157.0005 C.3     1  UNL1        0.0735
     20 C         142.3028  136.2335  156.4774 C.3     1  UNL1        0.0320
     21 C         141.2134  135.8403  155.5242 C.3     1  UNL1        0.0042
     22 C         141.1452  134.4361  155.0012 C.3     1  UNL1        0.0174
     23 C         142.1664  133.4250  155.4314 C.3     1  UNL1        0.0720
     24 N         143.2557  133.8182  156.3847 N.3     1  UNL1       -0.2739
     25 C         143.3239  135.2225  156.9077 C.3     1  UNL1        0.0734
     26 C         144.2769  132.8073  156.8149 C.3     1  UNL1        0.0576
     27 C         145.1583  132.2229  157.8786 C.3     1  UNL1        0.0173
     28 C         145.1641  131.6405  156.4963 C.3     1  UNL1        0.0173
@<TRIPOS>BOND
     1     1     2    2
     2     2     3   am
     3     3    11    1
     4    11    12   ar
     5    12    13   ar
     6    13    14   ar
     7    14    15    1
     8    14    16   ar
     9    16    17    1
    10    16    18   ar
    11     2     4   am
    12     4     5    1
    13     5     6    1
    14     6     7    1
    15     7    19    1
    16    20    19    1
    17    20    21    1
    18    21    22    1
    19    22    23    1
    20    23    24    1
    21    24    26    1
    22    26    27    1
    23    27    28    1
    24    24    25    1
    25     7     8    1
    26     8     9    1
    27    18    11   ar
    28     9     4    1
    29    25    20    1
    30    28    26    1
    31     3    10    1
@<TRIPOS>MOLECULE
*****
 28 31 0 0 0
SMALL
GASTEIGER

@<TRIPOS>ATOM
      1 O         139.6152  140.2711  157.1469 O.2     1  UNL1       -0.2522
      2 C         138.5530  140.1897  158.2029 C.2     1  UNL1        0.3078
      3 N         137.1944  140.7714  157.9464 N.am    1  UNL1       -0.2681
      4 N         138.8494  139.5265  159.5153 N.am    1  UNL1       -0.2611
      5 C         140.2080  138.9448  159.7717 C.3     1  UNL1        0.1123
      6 C         140.5043  138.2817  161.0841 C.3     1  UNL1        0.0940
      7 N         139.4421  138.2002  162.1401 N.3     1  UNL1       -0.2697
      8 C         138.0835  138.7819  161.8836 C.3     1  UNL1        0.0940
      9 C         137.7871  139.4451  160.5712 C.3     1  UNL1        0.1123
     10 H         136.4972  140.7179  158.6395 H       1  UNL1        0.1564
     11 C         136.8980  141.4346  156.6340 C.ar    1  UNL1        0.0525
     12 C         136.2246  140.6622  155.5386 C.ar    1  UNL1        0.0156
     13 C         135.9282  141.3254  154.2263 C.ar    1  UNL1        0.0135
     14 C         136.3052  142.7609  154.0093 C.ar    1  UNL1        0.0683
     15 CL        136.0088  143.4241  152.6969 Cl      1  UNL1       -0.0814
     16 C         136.9786  143.5333  155.1047 C.ar    1  UNL1        0.0694
     17 CL        137.3556  144.9688  154.8878 Cl      1  UNL1       -0.0813
     18 C         137.2750  142.8701  156.4171 C.ar    1  UNL1        0.0270
     19 C         139.7385  137.5371  163.4525 C.3     1  UNL1        0.0735
     20 C         139.6176  138.3142  164.7297 C.3     1  UNL1        0.0320
     21 C         138.4108  138.1387  165.6031 C.3     1  UNL1        0.0042
     22 C         138.2899  138.9159  166.8803 C.3     1  UNL1        0.0174
     23 C         139.3759  139.8687  167.2842 C.3     1  UNL1        0.0720
     24 N         140.5827  140.0442  166.4108 N.3     1  UNL1       -0.2739
     25 C         140.7035  139.2670  165.1335 C.3     1  UNL1        0.0734
     26 C         141.6685  140.9969  166.8146 C.3     1  UNL1        0.0576
     27 C         142.6772  141.4660  167.8209 C.3     1  UNL1        0.0173
     28 C         142.5408  142.1780  166.5077 C.3     1  UNL1        0.0173
@<TRIPOS>BOND
     1     1     2    2
     2     2     3   am
     3     3    11    1
     4    11    12   ar
     5    12    13   ar
     6    13    14   ar
     7    14    15    1
     8    14    16   ar
     9    16    17    1
    10    16    18   ar
    11     2     4   am
    12     4     5    1
    13     5     6    1
    14     6     7    1
    15     7    19    1
    16    20    19    1
    17    20    21    1
    18    21    22    1
    19    22    23    1
    20    23    24    1
    21    24    26    1
    22    26    27    1
    23    27    28    1
    24    24    25    1
    25     7     8    1
    26     8     9    1
    27    18    11   ar
    28     9     4    1
    29    25    20    1
    30    28    26    1
    31     3    10    1
@<TRIPOS>MOLECULE
*****
 28 31 0 0 0
SMALL
GASTEIGER

@<TRIPOS>ATOM
      1 O         139.0990  143.5656  159.1989 O.2     1  UNL1       -0.2522
      2 C         139.9838  144.3603  160.1130 C.2     1  UNL1        0.3078
      3 N         140.9724  145.3328  159.5413 N.am    1  UNL1       -0.2681
      4 N         139.8799  144.1825  161.5989 N.am    1  UNL1       -0.2611
      5 C         138.8913  143.2101  162.1706 C.3     1  UNL1        0.1123
      6 C         138.7875  143.0323  163.6563 C.3     1  UNL1        0.0940
      7 N         139.6723  143.8270  164.5704 N.3     1  UNL1       -0.2697
      8 C         140.6609  144.7994  163.9987 C.3     1  UNL1        0.0940
      9 C         140.7648  144.9772  162.5130 C.3     1  UNL1        0.1123
     10 H         141.5532  145.8544  160.1413 H       1  UNL1        0.1564
     11 C         141.0763  145.5106  158.0555 C.ar    1  UNL1        0.0525
     12 C         142.1927  144.8551  157.2979 C.ar    1  UNL1        0.0156
     13 C         142.2965  145.0330  155.8122 C.ar    1  UNL1        0.0135
     14 C         141.2839  145.8662  155.0840 C.ar    1  UNL1        0.0683
     15 CL        141.3878  146.0441  153.5981 Cl      1  UNL1       -0.0814
     16 C         140.1675  146.5217  155.8415 C.ar    1  UNL1        0.0694
     17 CL        139.1549  147.3550  155.1133 Cl      1  UNL1       -0.0813
     18 C         140.0637  146.3439  157.3273 C.ar    1  UNL1        0.0270
     19 C         139.5684  143.6492  166.0563 C.3     1  UNL1        0.0735
     20 C         140.5387  142.7591  166.7747 C.3     1  UNL1        0.0320
     21 C         140.6954  142.8669  168.2626 C.3     1  UNL1        0.0042
     22 C         141.6656  141.9768  168.9811 C.3     1  UNL1        0.0174
     23 C         142.4793  140.9788  168.2117 C.3     1  UNL1        0.0720
     24 N         142.3227  140.8710  166.7238 N.3     1  UNL1       -0.2739
     25 C         141.3524  141.7612  166.0053 C.3     1  UNL1        0.0734
     26 C         143.1363  139.8731  165.9544 C.3     1  UNL1        0.0576
     27 C         144.0377  139.5444  164.8014 C.3     1  UNL1        0.0173
     28 C         143.6442  138.4731  165.7747 C.3     1  UNL1        0.0173
@<TRIPOS>BOND
     1     1     2    2
     2     2     3   am
     3     3    11    1
     4    11    12   ar
     5    12    13   ar
     6    13    14   ar
     7    14    15    1
     8    14    16   ar
     9    16    17    1
    10    16    18   ar
    11     2     4   am
    12     4     5    1
    13     5     6    1
    14     6     7    1
    15     7    19    1
    16    20    19    1
    17    20    21    1
    18    21    22    1
    19    22    23    1
    20    23    24    1
    21    24    26    1
    22    26    27    1
    23    27    28    1
    24    24    25    1
    25     7     8    1
    26     8     9    1
    27    18    11   ar
    28     9     4    1
    29    25    20    1
    30    28    26    1
    31     3    10    1
@<TRIPOS>MOLECULE
*****
 28 31 0 0 0
SMALL
GASTEIGER

@<TRIPOS>ATOM
      1 O         139.1239  144.3661  164.9731 O.2     1  UNL1       -0.2522
      2 C         140.0636  143.5880  164.1005 C.2     1  UNL1        0.3078
      3 N         140.6984  142.3305  164.6161 N.am    1  UNL1       -0.2681
      4 N         140.3685  144.0673  162.7122 N.am    1  UNL1       -0.2611
      5 C         139.7337  145.3248  162.1966 C.3     1  UNL1        0.1123
      6 C         140.0387  145.8041  160.8084 C.3     1  UNL1        0.0940
      7 N         140.9784  145.0260  159.9357 N.3     1  UNL1       -0.2697
      8 C         141.6132  143.7685  160.4513 C.3     1  UNL1        0.0940
      9 C         141.3082  143.2892  161.8396 C.3     1  UNL1        0.1123
     10 H         141.3152  141.8199  164.0433 H       1  UNL1        0.1564
     11 C         140.3935  141.8512  166.0044 C.ar    1  UNL1        0.0525
     12 C         139.7468  140.5136  166.2109 C.ar    1  UNL1        0.0156
     13 C         139.4420  140.0343  167.5991 C.ar    1  UNL1        0.0135
     14 C         139.7838  140.8926  168.7809 C.ar    1  UNL1        0.0683
     15 CL        139.4788  140.4132  170.1692 Cl      1  UNL1       -0.0814
     16 C         140.4304  142.2301  168.5744 C.ar    1  UNL1        0.0694
     17 CL        140.7722  143.0884  169.7562 Cl      1  UNL1       -0.0813
     18 C         140.7353  142.7094  167.1862 C.ar    1  UNL1        0.0270
     19 C         141.2833  145.5053  158.5474 C.3     1  UNL1        0.0735
     20 C         140.2426  145.4005  157.4723 C.3     1  UNL1        0.0320
     21 C         139.8890  146.6046  156.6507 C.3     1  UNL1        0.0042
     22 C         138.8483  146.4998  155.5756 C.3     1  UNL1        0.0174
     23 C         138.1612  145.1907  155.3220 C.3     1  UNL1        0.0720
     24 N         138.5148  143.9865  156.1435 N.3     1  UNL1       -0.2739
     25 C         139.5556  144.0914  157.2187 C.3     1  UNL1        0.0734
     26 C         137.8278  142.6775  155.8899 C.3     1  UNL1        0.0576
     27 C         137.7046  141.4060  155.1039 C.3     1  UNL1        0.0173
     28 C         136.7610  141.6817  156.2368 C.3     1  UNL1        0.0173
@<TRIPOS>BOND
     1     1     2    2
     2     2     3   am
     3     3    11    1
     4    11    12   ar
     5    12    13   ar
     6    13    14   ar
     7    14    15    1
     8    14    16   ar
     9    16    17    1
    10    16    18   ar
    11     2     4   am
    12     4     5    1
    13     5     6    1
    14     6     7    1
    15     7    19    1
    16    20    19    1
    17    20    21    1
    18    21    22    1
    19    22    23    1
    20    23    24    1
    21    24    26    1
    22    26    27    1
    23    27    28    1
    24    24    25    1
    25     7     8    1
    26     8     9    1
    27    18    11   ar
    28     9     4    1
    29    25    20    1
    30    28    26    1
    31     3    10    1
@<TRIPOS>MOLECULE
*****
 28 31 0 0 0
SMALL
GASTEIGER

@<TRIPOS>ATOM
      1 O         140.5455  138.0206  157.9024 O.2     1  UNL1       -0.2522
      2 C         141.9692  138.0647  158.3728 C.2     1  UNL1        0.3078
      3 N         143.0343  137.3354  157.6089 N.am    1  UNL1       -0.2681
      4 N         142.3276  138.8380  159.6071 N.am    1  UNL1       -0.2611
      5 C         141.2624  139.5672  160.3710 C.3     1  UNL1        0.1123
      6 C         141.6209  140.3405  161.6053 C.3     1  UNL1        0.0940
      7 N         143.0445  140.3845  162.0757 N.3     1  UNL1       -0.2697
      8 C         144.1097  139.6553  161.3118 C.3     1  UNL1        0.0940
      9 C         143.7512  138.8820  160.0775 C.3     1  UNL1        0.1123
     10 H         143.9687  137.3643  157.9177 H       1  UNL1        0.1564
     11 C         142.6759  136.5621  156.3745 C.ar    1  UNL1        0.0525
     12 C         142.6014  137.2588  155.0483 C.ar    1  UNL1        0.0156
     13 C         142.2430  136.4855  153.8140 C.ar    1  UNL1        0.0135
     14 C         141.9591  135.0155  153.9060 C.ar    1  UNL1        0.0683
     15 CL        141.6006  134.2421  152.6717 Cl      1  UNL1       -0.0814
     16 C         142.0336  134.3188  155.2323 C.ar    1  UNL1        0.0694
     17 CL        141.7497  132.8487  155.3243 Cl      1  UNL1       -0.0813
     18 C         142.3920  135.0921  156.4665 C.ar    1  UNL1        0.0270
     19 C         143.4030  141.1579  163.3101 C.3     1  UNL1        0.0735
     20 C         142.8917  142.5560  163.4940 C.3     1  UNL1        0.0320
     21 C         143.7921  143.7252  163.2254 C.3     1  UNL1        0.0042
     22 C         143.2809  145.1233  163.4094 C.3     1  UNL1        0.0174
     23 C         141.8692  145.3522  163.8620 C.3     1  UNL1        0.0720
     24 N         140.9688  144.1830  164.1306 N.3     1  UNL1       -0.2739
     25 C         141.4801  142.7848  163.9466 C.3     1  UNL1        0.0734
     26 C         139.5571  144.4119  164.5831 C.3     1  UNL1        0.0576
     27 C         138.5879  144.9577  165.5894 C.3     1  UNL1        0.0173
     28 C         138.0813  144.2625  164.3606 C.3     1  UNL1        0.0173
@<TRIPOS>BOND
     1     1     2    2
     2     2     3   am
     3     3    11    1
     4    11    12   ar
     5    12    13   ar
     6    13    14   ar
     7    14    15    1
     8    14    16   ar
     9    16    17    1
    10    16    18   ar
    11     2     4   am
    12     4     5    1
    13     5     6    1
    14     6     7    1
    15     7    19    1
    16    20    19    1
    17    20    21    1
    18    21    22    1
    19    22    23    1
    20    23    24    1
    21    24    26    1
    22    26    27    1
    23    27    28    1
    24    24    25    1
    25     7     8    1
    26     8     9    1
    27    18    11   ar
    28     9     4    1
    29    25    20    1
    30    28    26    1
    31     3    10    1
@<TRIPOS>MOLECULE
*****
 28 31 0 0 0
SMALL
GASTEIGER

@<TRIPOS>ATOM
      1 O         143.8482  137.2443  156.3460 O.2     1  UNL1       -0.2522
      2 C         142.3605  137.1411  156.5068 C.2     1  UNL1        0.3078
      3 N         141.6922  135.7991  156.4581 N.am    1  UNL1       -0.2681
      4 N         141.5410  138.3799  156.7164 N.am    1  UNL1       -0.2611
      5 C         142.2092  139.7219  156.7651 C.3     1  UNL1        0.1123
      6 C         141.3898  140.9606  156.9746 C.3     1  UNL1        0.0940
      7 N         139.9020  140.8573  157.1354 N.3     1  UNL1       -0.2697
      8 C         139.2337  139.5153  157.0867 C.3     1  UNL1        0.0940
      9 C         140.0532  138.2766  156.8771 C.3     1  UNL1        0.1123
     10 H         140.7157  135.7313  156.5636 H       1  UNL1        0.1564
     11 C         142.5117  134.5602  156.2486 C.ar    1  UNL1        0.0525
     12 C         142.3542  133.7610  154.9891 C.ar    1  UNL1        0.0156
     13 C         143.1737  132.5222  154.7796 C.ar    1  UNL1        0.0135
     14 C         144.1506  132.0828  155.8296 C.ar    1  UNL1        0.0683
     15 CL        144.9701  130.8439  155.6201 Cl      1  UNL1       -0.0814
     16 C         144.3081  132.8820  157.0891 C.ar    1  UNL1        0.0694
     17 CL        145.2850  132.4426  158.1391 Cl      1  UNL1       -0.0813
     18 C         143.4886  134.1208  157.2985 C.ar    1  UNL1        0.0270
     19 C         139.0825  142.0962  157.3449 C.3     1  UNL1        0.0735
     20 C         139.3568  142.9870  158.5201 C.3     1  UNL1        0.0320
     21 C         140.3278  144.1228  158.3898 C.3     1  UNL1        0.0042
     22 C         140.6021  145.0136  159.5651 C.3     1  UNL1        0.0174
     23 C         139.9053  144.7686  160.8707 C.3     1  UNL1        0.0720
     24 N         138.9342  143.6328  161.0010 N.3     1  UNL1       -0.2739
     25 C         138.6600  142.7419  159.8257 C.3     1  UNL1        0.0734
     26 C         138.2374  143.3878  162.3065 C.3     1  UNL1        0.0576
     27 C         137.6452  143.9115  163.5812 C.3     1  UNL1        0.0173
     28 C         137.6228  142.4396  163.2930 C.3     1  UNL1        0.0173
@<TRIPOS>BOND
     1     1     2    2
     2     2     3   am
     3     3    11    1
     4    11    12   ar
     5    12    13   ar
     6    13    14   ar
     7    14    15    1
     8    14    16   ar
     9    16    17    1
    10    16    18   ar
    11     2     4   am
    12     4     5    1
    13     5     6    1
    14     6     7    1
    15     7    19    1
    16    20    19    1
    17    20    21    1
    18    21    22    1
    19    22    23    1
    20    23    24    1
    21    24    26    1
    22    26    27    1
    23    27    28    1
    24    24    25    1
    25     7     8    1
    26     8     9    1
    27    18    11   ar
    28     9     4    1
    29    25    20    1
    30    28    26    1
    31     3    10    1
@<TRIPOS>MOLECULE
*****
 28 31 0 0 0
SMALL
GASTEIGER

@<TRIPOS>ATOM
      1 O         141.4871  140.3433  161.3002 O.2     1  UNL1       -0.2522
      2 C         140.4598  139.9623  160.2758 C.2     1  UNL1        0.3078
      3 N         139.0642  140.5028  160.3761 N.am    1  UNL1       -0.2681
      4 N         140.8282  139.0407  159.1510 N.am    1  UNL1       -0.2611
      5 C         142.2238  138.5002  159.0507 C.3     1  UNL1        0.1123
      6 C         142.5921  137.5786  157.9260 C.3     1  UNL1        0.0940
      7 N         141.5648  137.1976  156.9016 N.3     1  UNL1       -0.2697
      8 C         140.1692  137.7381  157.0019 C.3     1  UNL1        0.0940
      9 C         139.8009  138.6596  158.1266 C.3     1  UNL1        0.1123
     10 H         138.3900  140.2527  159.7037 H       1  UNL1        0.1564
     11 C         138.6959  141.4244  161.5008 C.ar    1  UNL1        0.0525
     12 C         137.9805  140.8889  162.7056 C.ar    1  UNL1        0.0156
     13 C         137.6122  141.8105  163.8302 C.ar    1  UNL1        0.0135
     14 C         137.9592  143.2676  163.7502 C.ar    1  UNL1        0.0683
     15 CL        137.5909  144.1892  164.8749 Cl      1  UNL1       -0.0814
     16 C         138.6746  143.8031  162.5454 C.ar    1  UNL1        0.0694
     17 CL        139.0217  145.2602  162.4654 Cl      1  UNL1       -0.0813
     18 C         139.0429  142.8815  161.4208 C.ar    1  UNL1        0.0270
     19 C         141.9331  136.2759  155.7768 C.3     1  UNL1        0.0735
     20 C         142.2081  134.8276  156.0534 C.3     1  UNL1        0.0320
     21 C         143.2434  134.4411  157.0677 C.3     1  UNL1        0.0042
     22 C         143.5184  132.9927  157.3443 C.3     1  UNL1        0.0174
     23 C         142.7580  131.9307  156.6065 C.3     1  UNL1        0.0720
     24 N         141.7227  132.3172  155.5923 N.3     1  UNL1       -0.2739
     25 C         141.4478  133.7657  155.3157 C.3     1  UNL1        0.0734
     26 C         140.9624  131.2553  154.8546 C.3     1  UNL1        0.0576
     27 C         140.8758  130.2591  153.7366 C.3     1  UNL1        0.0173
     28 C         139.7320  130.4123  154.6949 C.3     1  UNL1        0.0173
@<TRIPOS>BOND
     1     1     2    2
     2     2     3   am
     3     3    11    1
     4    11    12   ar
     5    12    13   ar
     6    13    14   ar
     7    14    15    1
     8    14    16   ar
     9    16    17    1
    10    16    18   ar
    11     2     4   am
    12     4     5    1
    13     5     6    1
    14     6     7    1
    15     7    19    1
    16    20    19    1
    17    20    21    1
    18    21    22    1
    19    22    23    1
    20    23    24    1
    21    24    26    1
    22    26    27    1
    23    27    28    1
    24    24    25    1
    25     7     8    1
    26     8     9    1
    27    18    11   ar
    28     9     4    1
    29    25    20    1
    30    28    26    1
    31     3    10    1
@<TRIPOS>MOLECULE
*****
 28 31 0 0 0
SMALL
GASTEIGER

@<TRIPOS>ATOM
      1 O         144.8706  140.0595  157.3918 O.2     1  UNL1       -0.2522
      2 C         144.8216  141.4365  157.9847 C.2     1  UNL1        0.3078
      3 N         145.5518  142.5657  157.3200 N.am    1  UNL1       -0.2681
      4 N         144.0423  141.6844  159.2423 N.am    1  UNL1       -0.2611
      5 C         143.3121  140.5552  159.9069 C.3     1  UNL1        0.1123
      6 C         142.5329  140.8031  161.1644 C.3     1  UNL1        0.0940
      7 N         142.4839  142.1801  161.7573 N.3     1  UNL1       -0.2697
      8 C         143.2141  143.3092  161.0926 C.3     1  UNL1        0.0940
      9 C         143.9933  143.0613  159.8351 C.3     1  UNL1        0.1123
     10 H         145.5196  143.4694  157.7092 H       1  UNL1        0.1564
     11 C         146.3310  142.3178  156.0625 C.ar    1  UNL1        0.0525
     12 C         145.6207  142.2358  154.7439 C.ar    1  UNL1        0.0156
     13 C         146.4000  141.9880  153.4864 C.ar    1  UNL1        0.0135
     14 C         147.8896  141.8222  153.5475 C.ar    1  UNL1        0.0683
     15 CL        148.6688  141.5744  152.2899 Cl      1  UNL1       -0.0814
     16 C         148.5999  141.9042  154.8661 C.ar    1  UNL1        0.0694
     17 CL        150.0894  141.7383  154.9272 Cl      1  UNL1       -0.0813
     18 C         147.8206  142.1520  156.1236 C.ar    1  UNL1        0.0270
     19 C         141.7047  142.4279  163.0148 C.3     1  UNL1        0.0735
     20 C         140.3211  141.8676  163.1626 C.3     1  UNL1        0.0320
     21 C         139.2071  142.3835  162.3008 C.3     1  UNL1        0.0042
     22 C         137.8235  141.8232  162.4485 C.3     1  UNL1        0.0174
     23 C         137.5540  140.7470  163.4580 C.3     1  UNL1        0.0720
     24 N         138.6681  140.2311  164.3198 N.3     1  UNL1       -0.2739
     25 C         140.0517  140.7914  164.1721 C.3     1  UNL1        0.0734
     26 C         138.3986  139.1549  165.3294 C.3     1  UNL1        0.0576
     27 C         138.4504  137.7117  165.7348 C.3     1  UNL1        0.0173
     28 C         137.8801  138.7341  166.6725 C.3     1  UNL1        0.0173
@<TRIPOS>BOND
     1     1     2    2
     2     2     3   am
     3     3    11    1
     4    11    12   ar
     5    12    13   ar
     6    13    14   ar
     7    14    15    1
     8    14    16   ar
     9    16    17    1
    10    16    18   ar
    11     2     4   am
    12     4     5    1
    13     5     6    1
    14     6     7    1
    15     7    19    1
    16    20    19    1
    17    20    21    1
    18    21    22    1
    19    22    23    1
    20    23    24    1
    21    24    26    1
    22    26    27    1
    23    27    28    1
    24    24    25    1
    25     7     8    1
    26     8     9    1
    27    18    11   ar
    28     9     4    1
    29    25    20    1
    30    28    26    1
    31     3    10    1
