@<TRIPOS>MOLECULE
*****
 26 30 0 0 0
SMALL
GASTEIGER

@<TRIPOS>ATOM
      1 C         142.8328  137.1297  157.9571 C.3     1  UNL1        0.0899
      2 N         142.9837  138.1378  159.0576 N.3     1  UNL1       -0.2670
      3 C         143.2470  139.5767  158.7255 C.3     1  UNL1        0.0771
      4 C         143.3979  140.5848  159.8259 C.3     1  UNL1        0.0441
      5 C         143.2855  140.1541  161.2584 C.ar    1  UNL1       -0.0126
      6 C         143.0222  138.7151  161.5904 C.ar    1  UNL1        0.0210
      7 S         142.9619  138.5874  163.0836 S.2     1  UNL1       -0.0728
      8 C         143.1881  139.9475  163.6747 C.ar    1  UNL1        0.0965
      9 C         143.3880  140.9157  162.5465 C.ar    1  UNL1        0.0545
     10 C         143.6376  142.3658  162.8380 C.ar    1  UNL1        0.1717
     11 N         143.8691  143.5447  161.9399 N.ar    1  UNL1       -0.2032
     12 C         144.0618  144.7552  162.8045 C.ar    1  UNL1        0.2214
     13 N         143.9494  144.3244  164.2370 N.ar    1  UNL1       -0.1372
     14 N         143.6872  142.8477  164.2577 N.ar    1  UNL1       -0.1606
     15 C         143.4873  141.8795  165.3858 C.ar    1  UNL1        0.3532
     16 O         143.5369  142.3614  166.8054 O.2     1  UNL1       -0.2443
     17 N         143.2377  140.4294  165.0942 N.ar    1  UNL1       -0.2702
     18 C         142.8713  137.7070  160.4899 C.3     1  UNL1        0.1054
     19 C         143.0377  139.4612  166.2224 C.3     1  UNL1        0.1378
     20 C         141.9059  139.6572  167.1870 C.ar    1  UNL1        0.0006
     21 C         140.5050  139.8209  166.6764 C.ar    1  UNL1       -0.0015
     22 C         139.3731  140.0169  167.6410 C.ar    1  UNL1        0.0111
     23 C         139.6422  140.0490  169.1164 C.ar    1  UNL1        0.0577
     24 CL        138.5103  140.2449  170.0810 Cl      1  UNL1       -0.0822
     25 C         141.0430  139.8853  169.6271 C.ar    1  UNL1        0.0111
     26 C         142.1749  139.6893  168.6624 C.ar    1  UNL1       -0.0015
@<TRIPOS>BOND
     1     1     2    1
     2     2     3    1
     3     3     4    1
     4     4     5    1
     5     5     6   ar
     6     6     7   ar
     7     7     8   ar
     8     8     9   ar
     9     9    10   ar
    10    10    11   ar
    11    11    12   ar
    12    12    13   ar
    13    13    14   ar
    14    14    15   ar
    15    15    16    2
    16    15    17   ar
    17    17    19    1
    18    19    20    1
    19    20    21   ar
    20    21    22   ar
    21    22    23   ar
    22    23    24    1
    23    23    25   ar
    24    25    26   ar
    25     6    18    1
    26    18     2    1
    27     9     5   ar
    28    14    10   ar
    29    26    20   ar
    30    17     8   ar
@<TRIPOS>MOLECULE
*****
 26 30 0 0 0
SMALL
GASTEIGER

@<TRIPOS>ATOM
      1 C         145.0438  142.7758  161.8698 C.3     1  UNL1        0.0899
      2 N         144.3450  142.5317  163.1745 N.3     1  UNL1       -0.2670
      3 C         144.8664  143.1589  164.4334 C.3     1  UNL1        0.0771
      4 C         144.1676  142.9147  165.7380 C.3     1  UNL1        0.0441
      5 C         142.9475  142.0435  165.7838 C.ar    1  UNL1       -0.0126
      6 C         142.4261  141.4162  164.5249 C.ar    1  UNL1        0.0210
      7 S         141.2113  140.6100  164.8773 S.2     1  UNL1       -0.0728
      8 C         140.9819  140.7388  166.3542 C.ar    1  UNL1        0.0965
      9 C         142.0549  141.6248  166.9143 C.ar    1  UNL1        0.0545
     10 C         142.0806  141.9358  168.3815 C.ar    1  UNL1        0.1717
     11 N         143.0075  142.7707  169.2144 N.ar    1  UNL1       -0.2032
     12 C         142.5330  142.7118  170.6361 C.ar    1  UNL1        0.2214
     13 N         141.3129  141.8405  170.6819 N.ar    1  UNL1       -0.1372
     14 N         141.0332  141.3609  169.2884 N.ar    1  UNL1       -0.1606
     15 C         139.9603  140.4750  168.7282 C.ar    1  UNL1        0.3532
     16 O         138.9129  139.9001  169.6352 O.2     1  UNL1       -0.2443
     17 N         139.9346  140.1640  167.2611 N.ar    1  UNL1       -0.2702
     18 C         143.1249  141.6604  163.2202 C.3     1  UNL1        0.1054
     19 C         138.8616  139.2780  166.7009 C.3     1  UNL1        0.1378
     20 C         138.5437  139.3198  165.2356 C.ar    1  UNL1        0.0006
     21 C         137.9083  140.5414  164.6404 C.ar    1  UNL1       -0.0015
     22 C         137.5904  140.5831  163.1751 C.ar    1  UNL1        0.0111
     23 C         137.9079  139.4033  162.3049 C.ar    1  UNL1        0.0577
     24 CL        137.5900  139.4451  160.8395 Cl      1  UNL1       -0.0822
     25 C         138.5432  138.1818  162.8999 C.ar    1  UNL1        0.0111
     26 C         138.8611  138.1400  164.3654 C.ar    1  UNL1       -0.0015
@<TRIPOS>BOND
     1     1     2    1
     2     2     3    1
     3     3     4    1
     4     4     5    1
     5     5     6   ar
     6     6     7   ar
     7     7     8   ar
     8     8     9   ar
     9     9    10   ar
    10    10    11   ar
    11    11    12   ar
    12    12    13   ar
    13    13    14   ar
    14    14    15   ar
    15    15    16    2
    16    15    17   ar
    17    17    19    1
    18    19    20    1
    19    20    21   ar
    20    21    22   ar
    21    22    23   ar
    22    23    24    1
    23    23    25   ar
    24    25    26   ar
    25     6    18    1
    26    18     2    1
    27     9     5   ar
    28    14    10   ar
    29    26    20   ar
    30    17     8   ar
@<TRIPOS>MOLECULE
*****
 26 30 0 0 0
SMALL
GASTEIGER

@<TRIPOS>ATOM
      1 C         140.2863  145.9311  157.9940 C.3     1  UNL1        0.0899
      2 N         140.0492  144.8591  159.0161 N.3     1  UNL1       -0.2670
      3 C         139.7749  143.4514  158.5766 C.3     1  UNL1        0.0771
      4 C         139.5378  142.3793  159.5986 C.3     1  UNL1        0.0441
      5 C         139.5750  142.7150  161.0601 C.ar    1  UNL1       -0.0126
      6 C         139.8493  144.1228  161.4996 C.ar    1  UNL1        0.0210
      7 S         139.8244  144.1535  162.9990 S.2     1  UNL1       -0.0728
      8 C         139.5346  142.7646  163.4864 C.ar    1  UNL1        0.0965
      9 C         139.3805  141.8757  162.2880 C.ar    1  UNL1        0.0545
     10 C         139.0830  140.4168  162.4697 C.ar    1  UNL1        0.1717
     11 N         138.8793  139.3037  161.4851 N.ar    1  UNL1       -0.2032
     12 C         138.6100  138.0458  162.2566 C.ar    1  UNL1        0.2214
     13 N         138.6473  138.3815  163.7181 N.ar    1  UNL1       -0.1372
     14 N         138.9396  139.8468  163.8498 N.ar    1  UNL1       -0.1606
     15 C         139.0937  140.7358  165.0481 C.ar    1  UNL1        0.3532
     16 O         138.9503  140.1659  166.4282 O.2     1  UNL1       -0.2443
     17 N         139.3912  142.1947  164.8664 N.ar    1  UNL1       -0.2702
     18 C         140.0864  145.1948  160.4775 C.3     1  UNL1        0.1054
     19 C         139.5453  143.0837  166.0648 C.3     1  UNL1        0.1378
     20 C         140.6799  142.8635  167.0209 C.ar    1  UNL1        0.0006
     21 C         142.0383  142.4964  166.5011 C.ar    1  UNL1       -0.0015
     22 C         143.1730  142.2763  167.4572 C.ar    1  UNL1        0.0111
     23 C         142.9492  142.4232  168.9331 C.ar    1  UNL1        0.0577
     24 CL        144.0838  142.2031  169.8892 Cl      1  UNL1       -0.0822
     25 C         141.5910  142.7903  169.4529 C.ar    1  UNL1        0.0111
     26 C         140.4563  143.0105  168.4968 C.ar    1  UNL1       -0.0015
@<TRIPOS>BOND
     1     1     2    1
     2     2     3    1
     3     3     4    1
     4     4     5    1
     5     5     6   ar
     6     6     7   ar
     7     7     8   ar
     8     8     9   ar
     9     9    10   ar
    10    10    11   ar
    11    11    12   ar
    12    12    13   ar
    13    13    14   ar
    14    14    15   ar
    15    15    16    2
    16    15    17   ar
    17    17    19    1
    18    19    20    1
    19    20    21   ar
    20    21    22   ar
    21    22    23   ar
    22    23    24    1
    23    23    25   ar
    24    25    26   ar
    25     6    18    1
    26    18     2    1
    27     9     5   ar
    28    14    10   ar
    29    26    20   ar
    30    17     8   ar
@<TRIPOS>MOLECULE
*****
 26 30 0 0 0
SMALL
GASTEIGER

@<TRIPOS>ATOM
      1 C         139.5899  146.6515  161.6445 C.3     1  UNL1        0.0899
      2 N         140.1026  145.2545  161.8341 N.3     1  UNL1       -0.2670
      3 C         141.1354  144.7012  160.8977 C.3     1  UNL1        0.0771
      4 C         141.6481  143.3044  161.0872 C.3     1  UNL1        0.0441
      5 C         141.1280  142.4608  162.2132 C.ar    1  UNL1       -0.0126
      6 C         140.0951  143.0142  163.1498 C.ar    1  UNL1        0.0210
      7 S         139.7718  141.9551  164.1615 S.2     1  UNL1       -0.0728
      8 C         140.6049  140.7471  163.8503 C.ar    1  UNL1        0.0965
      9 C         141.4430  141.0597  162.6462 C.ar    1  UNL1        0.0545
     10 C         142.3848  140.0281  162.0996 C.ar    1  UNL1        0.1717
     11 N         143.3301  140.0487  160.9352 N.ar    1  UNL1       -0.2032
     12 C         144.0180  138.7172  160.8730 C.ar    1  UNL1        0.2214
     13 N         143.4979  137.8736  161.9991 N.ar    1  UNL1       -0.1372
     14 N         142.4885  138.6838  162.7572 N.ar    1  UNL1       -0.1606
     15 C         141.6503  138.3713  163.9612 C.ar    1  UNL1        0.3532
     16 O         141.7540  137.0270  164.6188 O.2     1  UNL1       -0.2443
     17 N         140.7086  139.4029  164.5078 N.ar    1  UNL1       -0.2702
     18 C         139.5824  144.4112  162.9602 C.3     1  UNL1        0.1054
     19 C         139.8704  139.0903  165.7119 C.3     1  UNL1        0.1378
     20 C         140.2862  139.5874  167.0647 C.ar    1  UNL1        0.0006
     21 C         141.7409  139.7687  167.3826 C.ar    1  UNL1       -0.0015
     22 C         142.1568  140.2658  168.7354 C.ar    1  UNL1        0.0111
     23 C         141.1178  140.5817  169.7702 C.ar    1  UNL1        0.0577
     24 CL        141.5336  141.0789  171.1230 Cl      1  UNL1       -0.0822
     25 C         139.6632  140.4005  169.4524 C.ar    1  UNL1        0.0111
     26 C         139.2474  139.9033  168.0995 C.ar    1  UNL1       -0.0015
@<TRIPOS>BOND
     1     1     2    1
     2     2     3    1
     3     3     4    1
     4     4     5    1
     5     5     6   ar
     6     6     7   ar
     7     7     8   ar
     8     8     9   ar
     9     9    10   ar
    10    10    11   ar
    11    11    12   ar
    12    12    13   ar
    13    13    14   ar
    14    14    15   ar
    15    15    16    2
    16    15    17   ar
    17    17    19    1
    18    19    20    1
    19    20    21   ar
    20    21    22   ar
    21    22    23   ar
    22    23    24    1
    23    23    25   ar
    24    25    26   ar
    25     6    18    1
    26    18     2    1
    27     9     5   ar
    28    14    10   ar
    29    26    20   ar
    30    17     8   ar
@<TRIPOS>MOLECULE
*****
 26 30 0 0 0
SMALL
GASTEIGER

@<TRIPOS>ATOM
      1 C         145.2323  142.4442  157.6056 C.3     1  UNL1        0.0899
      2 N         144.2603  142.5964  158.7379 N.3     1  UNL1       -0.2670
      3 C         142.8018  142.7994  158.4521 C.3     1  UNL1        0.0771
      4 C         141.8298  142.9516  159.5843 C.3     1  UNL1        0.0441
      5 C         142.3162  142.9007  161.0024 C.ar    1  UNL1       -0.0126
      6 C         143.7747  142.6976  161.2882 C.ar    1  UNL1        0.0210
      7 S         143.9588  142.6904  162.7768 S.2     1  UNL1       -0.0728
      8 C         142.6140  142.8891  163.4111 C.ar    1  UNL1        0.0965
      9 C         141.5988  143.0191  162.3144 C.ar    1  UNL1        0.0545
     10 C         140.1525  143.2284  162.6522 C.ar    1  UNL1        0.1717
     11 N         138.9342  143.3901  161.7922 N.ar    1  UNL1       -0.2032
     12 C         137.7499  143.5694  162.6952 C.ar    1  UNL1        0.2214
     13 N         138.2363  143.5185  164.1133 N.ar    1  UNL1       -0.1372
     14 N         139.7212  143.3077  164.0867 N.ar    1  UNL1       -0.1606
     15 C         140.7363  143.1778  165.1833 C.ar    1  UNL1        0.3532
     16 O         140.3051  143.2572  166.6178 O.2     1  UNL1       -0.2443
     17 N         142.1827  142.9685  164.8455 N.ar    1  UNL1       -0.2702
     18 C         144.7468  142.5454  160.1559 C.3     1  UNL1        0.1054
     19 C         143.1978  142.8386  165.9422 C.3     1  UNL1        0.1378
     20 C         143.0284  141.7890  167.0004 C.ar    1  UNL1        0.0006
     21 C         143.1233  142.1631  168.4499 C.ar    1  UNL1       -0.0015
     22 C         142.9538  141.1136  169.5081 C.ar    1  UNL1        0.0111
     23 C         142.6895  139.6898  169.1167 C.ar    1  UNL1        0.0577
     24 CL        142.5201  138.6403  170.1749 Cl      1  UNL1       -0.0822
     25 C         142.5946  139.3157  167.6673 C.ar    1  UNL1        0.0111
     26 C         142.7641  140.3653  166.6091 C.ar    1  UNL1       -0.0015
@<TRIPOS>BOND
     1     1     2    1
     2     2     3    1
     3     3     4    1
     4     4     5    1
     5     5     6   ar
     6     6     7   ar
     7     7     8   ar
     8     8     9   ar
     9     9    10   ar
    10    10    11   ar
    11    11    12   ar
    12    12    13   ar
    13    13    14   ar
    14    14    15   ar
    15    15    16    2
    16    15    17   ar
    17    17    19    1
    18    19    20    1
    19    20    21   ar
    20    21    22   ar
    21    22    23   ar
    22    23    24    1
    23    23    25   ar
    24    25    26   ar
    25     6    18    1
    26    18     2    1
    27     9     5   ar
    28    14    10   ar
    29    26    20   ar
    30    17     8   ar
@<TRIPOS>MOLECULE
*****
 26 30 0 0 0
SMALL
GASTEIGER

@<TRIPOS>ATOM
      1 C         142.9680  137.3146  159.7063 C.3     1  UNL1        0.0899
      2 N         142.4208  138.6064  160.2374 N.3     1  UNL1       -0.2670
      3 C         142.3109  139.8009  159.3369 C.3     1  UNL1        0.0771
      4 C         141.7637  141.0927  159.8679 C.3     1  UNL1        0.0441
      5 C         141.3264  141.1899  161.2994 C.ar    1  UNL1       -0.0126
      6 C         141.4363  139.9953  162.2000 C.ar    1  UNL1        0.0210
      7 S         140.9297  140.3887  163.5559 S.2     1  UNL1       -0.0728
      8 C         140.5066  141.8266  163.4934 C.ar    1  UNL1        0.0965
      9 C         140.7518  142.3217  162.0987 C.ar    1  UNL1        0.0545
     10 C         140.4202  143.7391  161.7370 C.ar    1  UNL1        0.1717
     11 N         140.5510  144.5042  160.4534 N.ar    1  UNL1       -0.2032
     12 C         140.0551  145.8994  160.6929 C.ar    1  UNL1        0.2214
     13 N         139.6178  145.9966  162.1245 N.ar    1  UNL1       -0.1372
     14 N         139.8435  144.6614  162.7697 N.ar    1  UNL1       -0.1606
     15 C         139.5983  144.1664  164.1643 C.ar    1  UNL1        0.3532
     16 O         139.0215  145.0887  165.1970 O.2     1  UNL1       -0.2443
     17 N         139.9299  142.7489  164.5260 N.ar    1  UNL1       -0.2702
     18 C         141.9835  138.7035  161.6689 C.3     1  UNL1        0.1054
     19 C         139.6846  142.2539  165.9207 C.3     1  UNL1        0.1378
     20 C         140.7740  142.3373  166.9484 C.ar    1  UNL1        0.0006
     21 C         140.4362  142.6516  168.3757 C.ar    1  UNL1       -0.0015
     22 C         141.5256  142.7350  169.4035 C.ar    1  UNL1        0.0111
     23 C         142.9529  142.5041  169.0039 C.ar    1  UNL1        0.0577
     24 CL        144.0422  142.5875  170.0317 Cl      1  UNL1       -0.0822
     25 C         143.2907  142.1897  167.5768 C.ar    1  UNL1        0.0111
     26 C         142.2013  142.1063  166.5490 C.ar    1  UNL1       -0.0015
@<TRIPOS>BOND
     1     1     2    1
     2     2     3    1
     3     3     4    1
     4     4     5    1
     5     5     6   ar
     6     6     7   ar
     7     7     8   ar
     8     8     9   ar
     9     9    10   ar
    10    10    11   ar
    11    11    12   ar
    12    12    13   ar
    13    13    14   ar
    14    14    15   ar
    15    15    16    2
    16    15    17   ar
    17    17    19    1
    18    19    20    1
    19    20    21   ar
    20    21    22   ar
    21    22    23   ar
    22    23    24    1
    23    23    25   ar
    24    25    26   ar
    25     6    18    1
    26    18     2    1
    27     9     5   ar
    28    14    10   ar
    29    26    20   ar
    30    17     8   ar
@<TRIPOS>MOLECULE
*****
 26 30 0 0 0
SMALL
GASTEIGER

@<TRIPOS>ATOM
      1 C         142.7111  137.2247  157.8006 C.3     1  UNL1        0.0899
      2 N         142.1115  138.4327  158.4574 N.3     1  UNL1       -0.2670
      3 C         142.4219  139.8032  157.9326 C.3     1  UNL1        0.0771
      4 C         141.8224  141.0113  158.5893 C.3     1  UNL1        0.0441
      5 C         140.9125  140.8488  159.7707 C.ar    1  UNL1       -0.0126
      6 C         140.6021  139.4782  160.2955 C.ar    1  UNL1        0.0210
      7 S         139.6775  139.6288  161.4668 S.2     1  UNL1       -0.0728
      8 C         139.4163  141.0925  161.6662 C.ar    1  UNL1        0.0965
      9 C         140.1797  141.8464  160.6178 C.ar    1  UNL1        0.0545
     10 C         140.1087  143.3440  160.5701 C.ar    1  UNL1        0.1717
     11 N         140.7467  144.3504  159.6591 N.ar    1  UNL1       -0.2032
     12 C         140.3068  145.7161  160.0967 C.ar    1  UNL1        0.2214
     13 N         139.3969  145.5536  161.2781 N.ar    1  UNL1       -0.1372
     14 N         139.2745  144.0875  161.5707 N.ar    1  UNL1       -0.1606
     15 C         138.5112  143.3336  162.6190 C.ar    1  UNL1        0.3532
     16 O         137.6769  144.0771  163.6196 O.2     1  UNL1       -0.2443
     17 N         138.5821  141.8360  162.6667 N.ar    1  UNL1       -0.2702
     18 C         141.2017  138.2702  159.6387 C.3     1  UNL1        0.1054
     19 C         137.8187  141.0821  163.7150 C.3     1  UNL1        0.1378
     20 C         138.4553  140.7900  165.0415 C.ar    1  UNL1        0.0006
     21 C         139.4583  141.7444  165.6185 C.ar    1  UNL1       -0.0015
     22 C         140.0948  141.4523  166.9450 C.ar    1  UNL1        0.0111
     23 C         139.7282  140.2057  167.6945 C.ar    1  UNL1        0.0577
     24 CL        140.3647  139.9136  169.0209 Cl      1  UNL1       -0.0822
     25 C         138.7253  139.2513  167.1175 C.ar    1  UNL1        0.0111
     26 C         138.0887  139.5434  165.7909 C.ar    1  UNL1       -0.0015
@<TRIPOS>BOND
     1     1     2    1
     2     2     3    1
     3     3     4    1
     4     4     5    1
     5     5     6   ar
     6     6     7   ar
     7     7     8   ar
     8     8     9   ar
     9     9    10   ar
    10    10    11   ar
    11    11    12   ar
    12    12    13   ar
    13    13    14   ar
    14    14    15   ar
    15    15    16    2
    16    15    17   ar
    17    17    19    1
    18    19    20    1
    19    20    21   ar
    20    21    22   ar
    21    22    23   ar
    22    23    24    1
    23    23    25   ar
    24    25    26   ar
    25     6    18    1
    26    18     2    1
    27     9     5   ar
    28    14    10   ar
    29    26    20   ar
    30    17     8   ar
@<TRIPOS>MOLECULE
*****
 26 30 0 0 0
SMALL
GASTEIGER

@<TRIPOS>ATOM
      1 C         141.8604  136.1276  156.4480 C.3     1  UNL1        0.0899
      2 N         141.9478  137.4778  157.0956 N.3     1  UNL1       -0.2670
      3 C         141.1654  138.6294  156.5373 C.3     1  UNL1        0.0771
      4 C         141.2528  139.9796  157.1849 C.3     1  UNL1        0.0441
      5 C         142.1225  140.1782  158.3907 C.ar    1  UNL1       -0.0126
      6 C         142.9050  139.0265  158.9490 C.ar    1  UNL1        0.0210
      7 S         143.6723  139.5211  160.1392 S.2     1  UNL1       -0.0728
      8 C         143.3641  140.9784  160.3165 C.ar    1  UNL1        0.0965
      9 C         142.4063  141.3845  159.2358 C.ar    1  UNL1        0.0545
     10 C         141.9163  142.8002  159.1611 C.ar    1  UNL1        0.1717
     11 N         140.9768  143.4885  158.2158 N.ar    1  UNL1       -0.2032
     12 C         140.8640  144.9236  158.6375 C.ar    1  UNL1        0.2214
     13 N         141.7338  145.1222  159.8433 N.ar    1  UNL1       -0.1372
     14 N         142.3842  143.8099  160.1670 N.ar    1  UNL1       -0.1606
     15 C         143.3419  143.4038  161.2476 C.ar    1  UNL1        0.3532
     16 O         143.8098  144.4135  162.2534 O.2     1  UNL1       -0.2443
     17 N         143.8319  141.9881  161.3223 N.ar    1  UNL1       -0.2702
     18 C         142.8175  137.6763  158.3014 C.3     1  UNL1        0.1054
     19 C         144.7897  141.5820  162.4030 C.3     1  UNL1        0.1378
     20 C         144.2727  140.9810  163.6763 C.ar    1  UNL1        0.0006
     21 C         143.5556  141.8408  164.6747 C.ar    1  UNL1       -0.0015
     22 C         143.0386  141.2397  165.9480 C.ar    1  UNL1        0.0111
     23 C         143.2387  139.7787  166.2230 C.ar    1  UNL1        0.0577
     24 CL        142.7217  139.1776  167.4964 Cl      1  UNL1       -0.0822
     25 C         143.9557  138.9189  165.2249 C.ar    1  UNL1        0.0111
     26 C         144.4728  139.5200  163.9514 C.ar    1  UNL1       -0.0015
@<TRIPOS>BOND
     1     1     2    1
     2     2     3    1
     3     3     4    1
     4     4     5    1
     5     5     6   ar
     6     6     7   ar
     7     7     8   ar
     8     8     9   ar
     9     9    10   ar
    10    10    11   ar
    11    11    12   ar
    12    12    13   ar
    13    13    14   ar
    14    14    15   ar
    15    15    16    2
    16    15    17   ar
    17    17    19    1
    18    19    20    1
    19    20    21   ar
    20    21    22   ar
    21    22    23   ar
    22    23    24    1
    23    23    25   ar
    24    25    26   ar
    25     6    18    1
    26    18     2    1
    27     9     5   ar
    28    14    10   ar
    29    26    20   ar
    30    17     8   ar
@<TRIPOS>MOLECULE
*****
 26 30 0 0 0
SMALL
GASTEIGER

@<TRIPOS>ATOM
      1 C         139.9621  137.8694  157.7089 C.3     1  UNL1        0.0899
      2 N         140.0406  138.8782  158.8163 N.3     1  UNL1       -0.2670
      3 C         140.4316  140.2945  158.5142 C.3     1  UNL1        0.0771
      4 C         140.5101  141.3033  159.6215 C.3     1  UNL1        0.0441
      5 C         140.1976  140.8958  161.0308 C.ar    1  UNL1       -0.0126
      6 C         139.8066  139.4795  161.3329 C.ar    1  UNL1        0.0210
      7 S         139.5573  139.3720  162.8081 S.2     1  UNL1       -0.0728
      8 C         139.7942  140.7219  163.4179 C.ar    1  UNL1        0.0965
      9 C         140.1899  141.6637  162.3194 C.ar    1  UNL1        0.0545
     10 C         140.4922  143.0987  162.6344 C.ar    1  UNL1        0.1717
     11 N         140.9043  144.2513  161.7675 N.ar    1  UNL1       -0.2032
     12 C         141.0655  145.4570  162.6452 C.ar    1  UNL1        0.2214
     13 N         140.7530  145.0495  164.0546 N.ar    1  UNL1       -0.1372
     14 N         140.3987  143.5920  164.0479 N.ar    1  UNL1       -0.1606
     15 C         140.0029  142.6502  165.1463 C.ar    1  UNL1        0.3532
     16 O         139.9094  143.1435  166.5598 O.2     1  UNL1       -0.2443
     17 N         139.7007  141.2152  164.8312 N.ar    1  UNL1       -0.2702
     18 C         139.7281  138.4706  160.2255 C.3     1  UNL1        0.1054
     19 C         139.3049  140.2735  165.9297 C.3     1  UNL1        0.1378
     20 C         140.2284  140.0432  167.0891 C.ar    1  UNL1        0.0006
     21 C         141.6723  139.7180  166.8449 C.ar    1  UNL1       -0.0015
     22 C         142.5958  139.4877  168.0042 C.ar    1  UNL1        0.0111
     23 C         142.0753  139.5827  169.4079 C.ar    1  UNL1        0.0577
     24 CL        142.9988  139.3524  170.5673 Cl      1  UNL1       -0.0822
     25 C         140.6316  139.9079  169.6522 C.ar    1  UNL1        0.0111
     26 C         139.7081  140.1381  168.4927 C.ar    1  UNL1       -0.0015
@<TRIPOS>BOND
     1     1     2    1
     2     2     3    1
     3     3     4    1
     4     4     5    1
     5     5     6   ar
     6     6     7   ar
     7     7     8   ar
     8     8     9   ar
     9     9    10   ar
    10    10    11   ar
    11    11    12   ar
    12    12    13   ar
    13    13    14   ar
    14    14    15   ar
    15    15    16    2
    16    15    17   ar
    17    17    19    1
    18    19    20    1
    19    20    21   ar
    20    21    22   ar
    21    22    23   ar
    22    23    24    1
    23    23    25   ar
    24    25    26   ar
    25     6    18    1
    26    18     2    1
    27     9     5   ar
    28    14    10   ar
    29    26    20   ar
    30    17     8   ar
