@<TRIPOS>MOLECULE
*****
 35 39 0 0 0
SMALL
GASTEIGER

@<TRIPOS>ATOM
      1 C         141.0148  140.3707  164.9718 C.ar    1  UNL1        0.0564
      2 C         141.4942  140.0206  163.5943 C.ar    1  UNL1        0.0237
      3 C         140.8688  138.8780  162.8504 C.ar    1  UNL1        0.0814
      4 N         139.7641  138.0855  163.4840 N.ar    1  UNL1       -0.2454
      5 C         139.2847  138.4356  164.8616 C.ar    1  UNL1        0.0815
      6 C         138.1800  137.6431  165.4953 C.ar    1  UNL1        0.0214
      7 C         137.7007  137.9932  166.8728 C.ar    1  UNL1        0.0312
      8 C         138.3261  139.1358  167.6167 C.ar    1  UNL1        0.1402
      9 F         137.8467  139.4859  168.9943 F       1  UNL1       -0.2042
     10 C         139.4308  139.9283  166.9830 C.ar    1  UNL1        0.0313
     11 C         139.9101  139.5782  165.6055 C.ar    1  UNL1        0.0243
     12 C         141.3482  138.5279  161.4728 C.ar    1  UNL1        0.0176
     13 C         142.6827  137.8685  161.2881 C.ar    1  UNL1        0.0012
     14 C         143.1621  137.5185  159.9106 C.ar    1  UNL1       -0.0029
     15 C         142.3068  137.8277  158.7177 C.ar    1  UNL1       -0.0061
     16 C         140.9722  138.4871  158.9024 C.ar    1  UNL1       -0.0029
     17 C         140.4929  138.8371  160.2799 C.ar    1  UNL1        0.0012
     18 C         142.7862  137.4776  157.3401 C.3     1  UNL1        0.0993
     19 N         142.5017  136.1199  156.7695 N.3     1  UNL1       -0.2646
     20 C         141.5026  135.9665  155.6612 C.3     1  UNL1        0.1049
     21 C         141.2181  134.6087  155.0906 C.3     1  UNL1        0.1595
     22 O         141.9327  133.4044  155.6283 O.3     1  UNL1       -0.3508
     23 C         142.9317  133.5579  156.7366 C.3     1  UNL1        0.1595
     24 C         143.2162  134.9157  157.3072 C.3     1  UNL1        0.1049
     25 O         141.0968  142.9019  165.5520 O.2     1  UNL1       -0.2701
     26 C         141.6402  141.5133  165.7157 C.2     1  UNL1        0.2460
     27 N         142.8089  141.2674  166.6231 N.am    1  UNL1       -0.2994
     28 H         143.1656  140.3561  166.7306 H       1  UNL1        0.1498
     29 C         143.4343  142.4100  167.3670 C.3     1  UNL1        0.1070
     30 C         143.2718  142.5152  168.8545 C.3     1  UNL1        0.0936
     31 N         142.0030  142.0494  169.5051 N.3     1  UNL1       -0.2712
     32 C         141.8338  140.7949  170.3099 C.3     1  UNL1        0.0722
     33 C         140.4069  140.7265  170.7673 C.3     1  UNL1        0.0188
     34 C         139.6942  141.9387  170.2452 C.3     1  UNL1        0.0188
     35 C         140.6806  142.7564  169.4651 C.3     1  UNL1        0.0722
@<TRIPOS>BOND
     1    25    26    2
     2    26    27   am
     3    27    29    1
     4    29    30    1
     5    30    31    1
     6    31    32    1
     7    32    33    1
     8    33    34    1
     9    34    35    1
    10    26     1    1
    11     1     2   ar
    12     2     3   ar
    13     3    12    1
    14    12    13   ar
    15    13    14   ar
    16    14    15   ar
    17    15    18    1
    18    18    19    1
    19    19    20    1
    20    20    21    1
    21    21    22    1
    22    22    23    1
    23    23    24    1
    24    15    16   ar
    25    16    17   ar
    26     3     4   ar
    27     4     5   ar
    28     5     6   ar
    29     6     7   ar
    30     7     8   ar
    31     8     9    1
    32     8    10   ar
    33    10    11   ar
    34    35    31    1
    35    11     1   ar
    36    17    12   ar
    37    11     5   ar
    38    24    19    1
    39    27    28    1
@<TRIPOS>MOLECULE
*****
 35 39 0 0 0
SMALL
GASTEIGER

@<TRIPOS>ATOM
      1 C         139.6980  140.9252  160.5219 C.ar    1  UNL1        0.0564
      2 C         140.2258  140.2013  159.3189 C.ar    1  UNL1        0.0237
      3 C         140.4309  138.7162  159.3673 C.ar    1  UNL1        0.0814
      4 N         140.1083  137.9549  160.6189 N.ar    1  UNL1       -0.2454
      5 C         139.5805  138.6788  161.8220 C.ar    1  UNL1        0.0815
      6 C         139.2579  137.9175  163.0735 C.ar    1  UNL1        0.0214
      7 C         138.7301  138.6414  164.2766 C.ar    1  UNL1        0.0312
      8 C         138.5249  140.1265  164.2282 C.ar    1  UNL1        0.1402
      9 F         137.9971  140.8504  165.4313 F       1  UNL1       -0.2042
     10 C         138.8475  140.8878  162.9766 C.ar    1  UNL1        0.0313
     11 C         139.3753  140.1639  161.7736 C.ar    1  UNL1        0.0243
     12 C         140.9587  137.9923  158.1642 C.ar    1  UNL1        0.0176
     13 C         142.4114  137.6267  158.0863 C.ar    1  UNL1        0.0012
     14 C         142.9391  136.9029  156.8832 C.ar    1  UNL1       -0.0029
     15 C         142.0142  136.5447  155.7579 C.ar    1  UNL1       -0.0061
     16 C         140.5616  136.9103  155.8358 C.ar    1  UNL1       -0.0029
     17 C         140.0338  137.6342  157.0389 C.ar    1  UNL1        0.0012
     18 C         142.5420  135.8208  154.5548 C.3     1  UNL1        0.0993
     19 N         142.0217  134.4563  154.2124 N.3     1  UNL1       -0.2646
     20 C         141.7438  133.4643  155.3026 C.3     1  UNL1        0.1049
     21 C         141.2234  132.0997  154.9603 C.3     1  UNL1        0.1595
     22 O         140.9810  131.7272  153.5276 O.3     1  UNL1       -0.3508
     23 C         141.2590  132.7192  152.4373 C.3     1  UNL1        0.1595
     24 C         141.7793  134.0838  152.7798 C.3     1  UNL1        0.1049
     25 O         138.1292  142.9704  160.1962 O.2     1  UNL1       -0.2701
     26 C         139.4928  142.4103  160.4735 C.2     1  UNL1        0.2460
     27 N         140.6512  143.3353  160.7023 N.am    1  UNL1       -0.2994
     28 H         141.5462  142.9677  160.8843 H       1  UNL1        0.1498
     29 C         140.4461  144.8204  160.6538 C.3     1  UNL1        0.1070
     30 C         140.2863  145.5974  161.9270 C.3     1  UNL1        0.0936
     31 N         139.6180  144.9659  163.1122 N.3     1  UNL1       -0.2712
     32 C         140.2930  144.5424  164.3830 C.3     1  UNL1        0.0722
     33 C         139.2496  143.9617  165.2909 C.3     1  UNL1        0.0188
     34 C         137.9298  144.0263  164.5811 C.3     1  UNL1        0.0188
     35 C         138.1574  144.6469  163.2346 C.3     1  UNL1        0.0722
@<TRIPOS>BOND
     1    25    26    2
     2    26    27   am
     3    27    29    1
     4    29    30    1
     5    30    31    1
     6    31    32    1
     7    32    33    1
     8    33    34    1
     9    34    35    1
    10    26     1    1
    11     1     2   ar
    12     2     3   ar
    13     3    12    1
    14    12    13   ar
    15    13    14   ar
    16    14    15   ar
    17    15    18    1
    18    18    19    1
    19    19    20    1
    20    20    21    1
    21    21    22    1
    22    22    23    1
    23    23    24    1
    24    15    16   ar
    25    16    17   ar
    26     3     4   ar
    27     4     5   ar
    28     5     6   ar
    29     6     7   ar
    30     7     8   ar
    31     8     9    1
    32     8    10   ar
    33    10    11   ar
    34    35    31    1
    35    11     1   ar
    36    17    12   ar
    37    11     5   ar
    38    24    19    1
    39    27    28    1
@<TRIPOS>MOLECULE
*****
 35 39 0 0 0
SMALL
GASTEIGER

@<TRIPOS>ATOM
      1 C         141.2123  141.9350  161.9116 C.ar    1  UNL1        0.0564
      2 C         140.8259  142.4779  160.5678 C.ar    1  UNL1        0.0237
      3 C         141.3620  143.8025  160.1117 C.ar    1  UNL1        0.0814
      4 N         142.2843  144.5842  160.9994 N.ar    1  UNL1       -0.2454
      5 C         142.6707  144.0413  162.3433 C.ar    1  UNL1        0.0815
      6 C         143.5931  144.8230  163.2311 C.ar    1  UNL1        0.0214
      7 C         143.9794  144.2801  164.5749 C.ar    1  UNL1        0.0312
      8 C         143.4434  142.9555  165.0310 C.ar    1  UNL1        0.1402
      9 F         143.8297  142.4126  166.3749 F       1  UNL1       -0.2042
     10 C         142.5210  142.1738  164.1433 C.ar    1  UNL1        0.0313
     11 C         142.1347  142.7167  162.7994 C.ar    1  UNL1        0.0243
     12 C         140.9756  144.3454  158.7678 C.ar    1  UNL1        0.0176
     13 C         139.8043  143.7643  158.0326 C.ar    1  UNL1        0.0012
     14 C         139.4180  144.3072  156.6888 C.ar    1  UNL1       -0.0029
     15 C         140.2029  145.4312  156.0801 C.ar    1  UNL1       -0.0061
     16 C         141.3742  146.0123  156.8152 C.ar    1  UNL1       -0.0029
     17 C         141.7605  145.4694  158.1590 C.ar    1  UNL1        0.0012
     18 C         139.8166  145.9741  154.7361 C.3     1  UNL1        0.0993
     19 N         139.7687  147.4564  154.5116 N.3     1  UNL1       -0.2646
     20 C         138.9565  148.3273  155.4236 C.3     1  UNL1        0.1049
     21 C         138.9087  149.8096  155.1990 C.3     1  UNL1        0.1595
     22 O         139.6731  150.4210  154.0624 O.3     1  UNL1       -0.3508
     23 C         140.4853  149.5501  153.1503 C.3     1  UNL1        0.1595
     24 C         140.5331  148.0677  153.3750 C.3     1  UNL1        0.1049
     25 O         139.2928  140.5180  162.9402 O.2     1  UNL1       -0.2701
     26 C         140.6762  140.6103  162.3677 C.2     1  UNL1        0.2460
     27 N         141.5236  139.3781  162.2514 N.am    1  UNL1       -0.2994
     28 H         142.4315  139.4387  161.8757 H       1  UNL1        0.1498
     29 C         140.9875  138.0535  162.7075 C.3     1  UNL1        0.1070
     30 C         141.0737  137.6675  164.1545 C.3     1  UNL1        0.0936
     31 N         140.1328  138.2777  165.1508 N.3     1  UNL1       -0.2712
     32 C         138.7099  137.8659  165.3867 C.3     1  UNL1        0.0722
     33 C         138.1473  138.7404  166.4677 C.3     1  UNL1        0.0188
     34 C         139.2226  139.6928  166.9000 C.3     1  UNL1        0.0188
     35 C         140.4498  139.4068  166.0861 C.3     1  UNL1        0.0722
@<TRIPOS>BOND
     1    25    26    2
     2    26    27   am
     3    27    29    1
     4    29    30    1
     5    30    31    1
     6    31    32    1
     7    32    33    1
     8    33    34    1
     9    34    35    1
    10    26     1    1
    11     1     2   ar
    12     2     3   ar
    13     3    12    1
    14    12    13   ar
    15    13    14   ar
    16    14    15   ar
    17    15    18    1
    18    18    19    1
    19    19    20    1
    20    20    21    1
    21    21    22    1
    22    22    23    1
    23    23    24    1
    24    15    16   ar
    25    16    17   ar
    26     3     4   ar
    27     4     5   ar
    28     5     6   ar
    29     6     7   ar
    30     7     8   ar
    31     8     9    1
    32     8    10   ar
    33    10    11   ar
    34    35    31    1
    35    11     1   ar
    36    17    12   ar
    37    11     5   ar
    38    24    19    1
    39    27    28    1
@<TRIPOS>MOLECULE
*****
 35 39 0 0 0
SMALL
GASTEIGER

@<TRIPOS>ATOM
      1 C         140.9831  140.3851  164.4878 C.ar    1  UNL1        0.0564
      2 C         141.3860  140.0001  163.0952 C.ar    1  UNL1        0.0237
      3 C         140.7546  138.8113  162.4333 C.ar    1  UNL1        0.0814
      4 N         139.7203  138.0075  163.1641 N.ar    1  UNL1       -0.2454
      5 C         139.3174  138.3925  164.5568 C.ar    1  UNL1        0.0815
      6 C         138.2831  137.5886  165.2876 C.ar    1  UNL1        0.0214
      7 C         137.8802  137.9736  166.6802 C.ar    1  UNL1        0.0312
      8 C         138.5116  139.1625  167.3420 C.ar    1  UNL1        0.1402
      9 F         138.1086  139.5475  168.7347 F       1  UNL1       -0.2042
     10 C         139.5458  139.9663  166.6112 C.ar    1  UNL1        0.0313
     11 C         139.9487  139.5813  165.2186 C.ar    1  UNL1        0.0243
     12 C         141.1576  138.4263  161.0407 C.ar    1  UNL1        0.0176
     13 C         140.2055  138.6332  159.9002 C.ar    1  UNL1        0.0012
     14 C         140.6085  138.2482  158.5076 C.ar    1  UNL1       -0.0029
     15 C         141.9635  137.6563  158.2555 C.ar    1  UNL1       -0.0061
     16 C         142.9156  137.4495  159.3960 C.ar    1  UNL1       -0.0029
     17 C         142.5126  137.8345  160.7885 C.ar    1  UNL1        0.0012
     18 C         142.3665  137.2713  156.8628 C.3     1  UNL1        0.0993
     19 N         142.3134  135.8341  156.4370 N.3     1  UNL1       -0.2646
     20 C         141.2945  135.3870  155.4310 C.3     1  UNL1        0.1049
     21 C         141.2415  133.9497  155.0052 C.3     1  UNL1        0.1595
     22 O         142.2074  132.9594  155.5853 O.3     1  UNL1       -0.3508
     23 C         143.2263  133.4065  156.5912 C.3     1  UNL1        0.1595
     24 C         143.2793  134.8439  157.0171 C.3     1  UNL1        0.1049
     25 O         141.0450  142.9444  164.9309 O.2     1  UNL1       -0.2701
     26 C         141.6145  141.5740  165.1496 C.2     1  UNL1        0.2460
     27 N         142.8152  141.3924  166.0301 N.am    1  UNL1       -0.2994
     28 H         143.1889  140.4930  166.1736 H       1  UNL1        0.1498
     29 C         143.4466  142.5813  166.6919 C.3     1  UNL1        0.1070
     30 C         144.4046  143.4450  165.9262 C.3     1  UNL1        0.0936
     31 N         144.5996  143.2271  164.4550 N.3     1  UNL1       -0.2712
     32 C         144.0295  144.0729  163.3552 C.3     1  UNL1        0.0722
     33 C         144.4765  143.4935  162.0458 C.3     1  UNL1        0.0188
     34 C         145.3228  142.2897  162.3363 C.3     1  UNL1        0.0188
     35 C         145.3989  142.1249  163.8253 C.3     1  UNL1        0.0722
@<TRIPOS>BOND
     1    25    26    2
     2    26    27   am
     3    27    29    1
     4    29    30    1
     5    30    31    1
     6    31    32    1
     7    32    33    1
     8    33    34    1
     9    34    35    1
    10    26     1    1
    11     1     2   ar
    12     2     3   ar
    13     3    12    1
    14    12    13   ar
    15    13    14   ar
    16    14    15   ar
    17    15    18    1
    18    18    19    1
    19    19    20    1
    20    20    21    1
    21    21    22    1
    22    22    23    1
    23    23    24    1
    24    15    16   ar
    25    16    17   ar
    26     3     4   ar
    27     4     5   ar
    28     5     6   ar
    29     6     7   ar
    30     7     8   ar
    31     8     9    1
    32     8    10   ar
    33    10    11   ar
    34    35    31    1
    35    11     1   ar
    36    17    12   ar
    37    11     5   ar
    38    24    19    1
    39    27    28    1
@<TRIPOS>MOLECULE
*****
 35 39 0 0 0
SMALL
GASTEIGER

@<TRIPOS>ATOM
      1 C         140.0838  140.1134  163.4635 C.ar    1  UNL1        0.0564
      2 C         140.5802  139.3328  162.2827 C.ar    1  UNL1        0.0237
      3 C         140.3052  139.8215  160.8915 C.ar    1  UNL1        0.0814
      4 N         139.5340  141.0906  160.6810 N.ar    1  UNL1       -0.2454
      5 C         139.0376  141.8713  161.8618 C.ar    1  UNL1        0.0815
      6 C         138.2664  143.1404  161.6513 C.ar    1  UNL1        0.0214
      7 C         137.7701  143.9210  162.8321 C.ar    1  UNL1        0.0312
      8 C         138.0450  143.4324  164.2234 C.ar    1  UNL1        0.1402
      9 F         137.5487  144.2130  165.4043 F       1  UNL1       -0.2042
     10 C         138.8163  142.1632  164.4339 C.ar    1  UNL1        0.0313
     11 C         139.3126  141.3827  163.2531 C.ar    1  UNL1        0.0243
     12 C         140.8016  139.0408  159.7106 C.ar    1  UNL1        0.0176
     13 C         142.2297  138.5849  159.6596 C.ar    1  UNL1        0.0012
     14 C         142.7260  137.8043  158.4788 C.ar    1  UNL1       -0.0029
     15 C         141.7942  137.4796  157.3490 C.ar    1  UNL1       -0.0061
     16 C         140.3661  137.9355  157.4001 C.ar    1  UNL1       -0.0029
     17 C         139.8698  138.7161  158.5809 C.ar    1  UNL1        0.0012
     18 C         142.2905  136.6990  156.1682 C.3     1  UNL1        0.0993
     19 N         142.3202  135.2002  156.2188 N.3     1  UNL1       -0.2646
     20 C         143.2832  134.4994  157.1307 C.3     1  UNL1        0.1049
     21 C         143.3128  133.0006  157.1813 C.3     1  UNL1        0.1595
     22 O         142.3795  132.2025  156.3199 O.3     1  UNL1       -0.3508
     23 C         141.4165  132.9032  155.4079 C.3     1  UNL1        0.1595
     24 C         141.3869  134.4021  155.3574 C.3     1  UNL1        0.1049
     25 O         139.3619  138.7472  165.5522 O.2     1  UNL1       -0.2701
     26 C         140.3588  139.6248  164.8548 C.2     1  UNL1        0.2460
     27 N         141.6304  140.0137  165.5487 N.am    1  UNL1       -0.2994
     28 H         142.2846  140.5897  165.0910 H       1  UNL1        0.1498
     29 C         141.9053  139.5251  166.9400 C.3     1  UNL1        0.1070
     30 C         142.6894  140.3778  167.8932 C.3     1  UNL1        0.0936
     31 N         142.0343  141.5475  168.5660 N.3     1  UNL1       -0.2712
     32 C         142.6277  142.3785  169.6646 C.3     1  UNL1        0.0722
     33 C         141.6309  143.4362  170.0359 C.3     1  UNL1        0.0188
     34 C         140.4214  143.2587  169.1667 C.3     1  UNL1        0.0188
     35 C         140.6706  142.0914  168.2582 C.3     1  UNL1        0.0722
@<TRIPOS>BOND
     1    25    26    2
     2    26    27   am
     3    27    29    1
     4    29    30    1
     5    30    31    1
     6    31    32    1
     7    32    33    1
     8    33    34    1
     9    34    35    1
    10    26     1    1
    11     1     2   ar
    12     2     3   ar
    13     3    12    1
    14    12    13   ar
    15    13    14   ar
    16    14    15   ar
    17    15    18    1
    18    18    19    1
    19    19    20    1
    20    20    21    1
    21    21    22    1
    22    22    23    1
    23    23    24    1
    24    15    16   ar
    25    16    17   ar
    26     3     4   ar
    27     4     5   ar
    28     5     6   ar
    29     6     7   ar
    30     7     8   ar
    31     8     9    1
    32     8    10   ar
    33    10    11   ar
    34    35    31    1
    35    11     1   ar
    36    17    12   ar
    37    11     5   ar
    38    24    19    1
    39    27    28    1
@<TRIPOS>MOLECULE
*****
 35 39 0 0 0
SMALL
GASTEIGER

@<TRIPOS>ATOM
      1 C         139.4805  140.6594  163.1678 C.ar    1  UNL1        0.0564
      2 C         140.0248  140.3042  161.8159 C.ar    1  UNL1        0.0237
      3 C         140.1646  138.8646  161.4183 C.ar    1  UNL1        0.0814
      4 N         139.7602  137.7803  162.3724 N.ar    1  UNL1       -0.2454
      5 C         139.2158  138.1354  163.7244 C.ar    1  UNL1        0.0815
      6 C         138.8113  137.0511  164.6785 C.ar    1  UNL1        0.0214
      7 C         138.2670  137.4063  166.0304 C.ar    1  UNL1        0.0312
      8 C         138.1272  138.8458  166.4280 C.ar    1  UNL1        0.1402
      9 F         137.5828  139.2010  167.7800 F       1  UNL1       -0.2042
     10 C         138.5316  139.9302  165.4739 C.ar    1  UNL1        0.0313
     11 C         139.0760  139.5750  164.1220 C.ar    1  UNL1        0.0243
     12 C         140.7090  138.5095  160.0663 C.ar    1  UNL1        0.0176
     13 C         142.1704  138.2152  159.8999 C.ar    1  UNL1        0.0012
     14 C         142.7146  137.8601  158.5480 C.ar    1  UNL1       -0.0029
     15 C         141.7976  137.7992  157.3626 C.ar    1  UNL1       -0.0061
     16 C         140.3362  138.0935  157.5291 C.ar    1  UNL1       -0.0029
     17 C         139.7919  138.4486  158.8809 C.ar    1  UNL1        0.0012
     18 C         142.3419  137.4440  156.0107 C.3     1  UNL1        0.0993
     19 N         141.9805  136.1332  155.3774 N.3     1  UNL1       -0.2646
     20 C         142.1665  134.8551  156.1401 C.3     1  UNL1        0.1049
     21 C         141.8051  133.5444  155.5068 C.3     1  UNL1        0.1595
     22 O         141.2577  133.5116  154.1106 O.3     1  UNL1       -0.3508
     23 C         141.0716  134.7897  153.3478 C.3     1  UNL1        0.1595
     24 C         141.4331  136.1006  153.9812 C.3     1  UNL1        0.1049
     25 O         140.0265  142.6062  164.7993 O.2     1  UNL1       -0.2701
     26 C         139.3406  142.0989  163.5654 C.2     1  UNL1        0.2460
     27 N         138.5151  143.0312  162.7293 N.am    1  UNL1       -0.2994
     28 H         138.0649  142.6983  161.9195 H       1  UNL1        0.1498
     29 C         138.3752  144.4708  163.1269 C.3     1  UNL1        0.1070
     30 C         139.3920  145.4762  162.6737 C.3     1  UNL1        0.0936
     31 N         140.8506  145.1267  162.6883 N.3     1  UNL1       -0.2712
     32 C         141.8219  145.4424  163.7870 C.3     1  UNL1        0.0722
     33 C         143.1657  144.9109  163.3846 C.3     1  UNL1        0.0188
     34 C         143.0249  144.2668  162.0372 C.3     1  UNL1        0.0188
     35 C         141.5941  144.4001  161.6069 C.3     1  UNL1        0.0722
@<TRIPOS>BOND
     1    25    26    2
     2    26    27   am
     3    27    29    1
     4    29    30    1
     5    30    31    1
     6    31    32    1
     7    32    33    1
     8    33    34    1
     9    34    35    1
    10    26     1    1
    11     1     2   ar
    12     2     3   ar
    13     3    12    1
    14    12    13   ar
    15    13    14   ar
    16    14    15   ar
    17    15    18    1
    18    18    19    1
    19    19    20    1
    20    20    21    1
    21    21    22    1
    22    22    23    1
    23    23    24    1
    24    15    16   ar
    25    16    17   ar
    26     3     4   ar
    27     4     5   ar
    28     5     6   ar
    29     6     7   ar
    30     7     8   ar
    31     8     9    1
    32     8    10   ar
    33    10    11   ar
    34    35    31    1
    35    11     1   ar
    36    17    12   ar
    37    11     5   ar
    38    24    19    1
    39    27    28    1
@<TRIPOS>MOLECULE
*****
 35 39 0 0 0
SMALL
GASTEIGER

@<TRIPOS>ATOM
      1 C         142.0249  137.6416  157.1666 C.ar    1  UNL1        0.0564
      2 C         142.2970  136.1670  157.2044 C.ar    1  UNL1        0.0237
      3 C         143.4468  135.5964  156.4283 C.ar    1  UNL1        0.0814
      4 N         144.3245  136.5003  155.6145 N.ar    1  UNL1       -0.2454
      5 C         144.0524  137.9750  155.5767 C.ar    1  UNL1        0.0815
      6 C         144.9301  138.8790  154.7628 C.ar    1  UNL1        0.0214
      7 C         144.6580  140.3536  154.7251 C.ar    1  UNL1        0.0312
      8 C         143.5082  140.9242  155.5011 C.ar    1  UNL1        0.1402
      9 F         143.2361  142.3989  155.4633 F       1  UNL1       -0.2042
     10 C         142.6305  140.0202  156.3150 C.ar    1  UNL1        0.0313
     11 C         142.9026  138.5456  156.3528 C.ar    1  UNL1        0.0243
     12 C         143.7189  134.1217  156.4661 C.ar    1  UNL1        0.0176
     13 C         143.3569  133.2619  155.2916 C.ar    1  UNL1        0.0012
     14 C         143.6289  131.7873  155.3294 C.ar    1  UNL1       -0.0029
     15 C         144.2630  131.1725  156.5418 C.ar    1  UNL1       -0.0061
     16 C         144.6250  132.0323  157.7164 C.ar    1  UNL1       -0.0029
     17 C         144.3529  133.5069  157.6786 C.ar    1  UNL1        0.0012
     18 C         144.5351  129.6978  156.5796 C.3     1  UNL1        0.0993
     19 N         143.6203  128.7857  157.3419 N.3     1  UNL1       -0.2646
     20 C         142.6468  127.9136  156.6060 C.3     1  UNL1        0.1049
     21 C         141.7320  127.0015  157.3683 C.3     1  UNL1        0.1595
     22 O         141.7907  126.9614  158.8667 O.3     1  UNL1       -0.3508
     23 C         142.7643  127.8334  159.6026 C.3     1  UNL1        0.1595
     24 C         143.6791  128.7456  158.8402 C.3     1  UNL1        0.1049
     25 O         139.5361  138.3775  157.2870 O.2     1  UNL1       -0.2701
     26 C         140.8750  138.2122  157.9427 C.2     1  UNL1        0.2460
     27 N         141.0641  138.6175  159.3744 N.am    1  UNL1       -0.2994
     28 H         141.9429  138.5090  159.8048 H       1  UNL1        0.1498
     29 C         139.9143  139.1881  160.1505 C.3     1  UNL1        0.1070
     30 C         139.1045  138.3031  161.0511 C.3     1  UNL1        0.0936
     31 N         139.6160  137.9543  162.4174 N.3     1  UNL1       -0.2712
     32 C         140.9868  137.4380  162.7404 C.3     1  UNL1        0.0722
     33 C         141.0645  137.2251  164.2232 C.3     1  UNL1        0.0188
     34 C         139.7417  137.6099  164.8166 C.3     1  UNL1        0.0188
     35 C         138.8464  138.0605  163.7006 C.3     1  UNL1        0.0722
@<TRIPOS>BOND
     1    25    26    2
     2    26    27   am
     3    27    29    1
     4    29    30    1
     5    30    31    1
     6    31    32    1
     7    32    33    1
     8    33    34    1
     9    34    35    1
    10    26     1    1
    11     1     2   ar
    12     2     3   ar
    13     3    12    1
    14    12    13   ar
    15    13    14   ar
    16    14    15   ar
    17    15    18    1
    18    18    19    1
    19    19    20    1
    20    20    21    1
    21    21    22    1
    22    22    23    1
    23    23    24    1
    24    15    16   ar
    25    16    17   ar
    26     3     4   ar
    27     4     5   ar
    28     5     6   ar
    29     6     7   ar
    30     7     8   ar
    31     8     9    1
    32     8    10   ar
    33    10    11   ar
    34    35    31    1
    35    11     1   ar
    36    17    12   ar
    37    11     5   ar
    38    24    19    1
    39    27    28    1
@<TRIPOS>MOLECULE
*****
 35 39 0 0 0
SMALL
GASTEIGER

@<TRIPOS>ATOM
      1 C         141.3777  142.7330  161.3262 C.ar    1  UNL1        0.0564
      2 C         140.9278  143.7453  160.3149 C.ar    1  UNL1        0.0237
      3 C         140.4931  143.3000  158.9501 C.ar    1  UNL1        0.0814
      4 N         140.5082  141.8424  158.5966 N.ar    1  UNL1       -0.2454
      5 C         140.9581  140.8300  159.6080 C.ar    1  UNL1        0.0815
      6 C         140.9732  139.3723  159.2545 C.ar    1  UNL1        0.0214
      7 C         141.4231  138.3600  160.2658 C.ar    1  UNL1        0.0312
      8 C         141.8578  138.8053  161.6306 C.ar    1  UNL1        0.1402
      9 F         142.3077  137.7929  162.6419 F       1  UNL1       -0.2042
     10 C         141.8427  140.2630  161.9841 C.ar    1  UNL1        0.0313
     11 C         141.3928  141.2753  160.9728 C.ar    1  UNL1        0.0243
     12 C         140.0432  144.3124  157.9388 C.ar    1  UNL1        0.0176
     13 C         139.2525  143.8760  156.7412 C.ar    1  UNL1        0.0012
     14 C         138.8027  144.8884  155.7299 C.ar    1  UNL1       -0.0029
     15 C         139.1435  146.3372  155.9163 C.ar    1  UNL1       -0.0061
     16 C         139.9342  146.7736  157.1139 C.ar    1  UNL1       -0.0029
     17 C         140.3840  145.7612  158.1251 C.ar    1  UNL1        0.0012
     18 C         138.6936  147.3496  154.9049 C.3     1  UNL1        0.0993
     19 N         139.1377  148.7773  155.0243 N.3     1  UNL1       -0.2646
     20 C         138.4621  149.6938  156.0009 C.3     1  UNL1        0.1049
     21 C         138.9062  151.1215  156.1202 C.3     1  UNL1        0.1595
     22 O         140.0258  151.6329  155.2629 O.3     1  UNL1       -0.3508
     23 C         140.7013  150.7165  154.2862 C.3     1  UNL1        0.1595
     24 C         140.2572  149.2887  154.1669 C.3     1  UNL1        0.1049
     25 O         140.8992  142.9933  163.8666 O.2     1  UNL1       -0.2701
     26 C         141.8124  143.1784  162.6910 C.2     1  UNL1        0.2460
     27 N         143.1603  143.8087  162.8803 N.am    1  UNL1       -0.2994
     28 H         143.7596  143.9302  162.1087 H       1  UNL1        0.1498
     29 C         143.5950  144.2541  164.2451 C.3     1  UNL1        0.1070
     30 C         144.4503  143.3567  165.0897 C.3     1  UNL1        0.0936
     31 N         144.4012  141.8706  164.8926 N.3     1  UNL1       -0.2712
     32 C         143.3930  140.9347  165.4907 C.3     1  UNL1        0.0722
     33 C         143.7203  139.5450  165.0305 C.3     1  UNL1        0.0188
     34 C         144.9307  139.6221  164.1479 C.3     1  UNL1        0.0188
     35 C         145.3516  141.0593  164.0627 C.3     1  UNL1        0.0722
@<TRIPOS>BOND
     1    25    26    2
     2    26    27   am
     3    27    29    1
     4    29    30    1
     5    30    31    1
     6    31    32    1
     7    32    33    1
     8    33    34    1
     9    34    35    1
    10    26     1    1
    11     1     2   ar
    12     2     3   ar
    13     3    12    1
    14    12    13   ar
    15    13    14   ar
    16    14    15   ar
    17    15    18    1
    18    18    19    1
    19    19    20    1
    20    20    21    1
    21    21    22    1
    22    22    23    1
    23    23    24    1
    24    15    16   ar
    25    16    17   ar
    26     3     4   ar
    27     4     5   ar
    28     5     6   ar
    29     6     7   ar
    30     7     8   ar
    31     8     9    1
    32     8    10   ar
    33    10    11   ar
    34    35    31    1
    35    11     1   ar
    36    17    12   ar
    37    11     5   ar
    38    24    19    1
    39    27    28    1
@<TRIPOS>MOLECULE
*****
 35 39 0 0 0
SMALL
GASTEIGER

@<TRIPOS>ATOM
      1 C         142.2490  140.1232  159.6896 C.ar    1  UNL1        0.0564
      2 C         142.4507  139.7928  161.1387 C.ar    1  UNL1        0.0237
      3 C         141.8372  140.6597  162.1981 C.ar    1  UNL1        0.0814
      4 N         141.0220  141.8570  161.8082 N.ar    1  UNL1       -0.2454
      5 C         140.8203  142.1874  160.3590 C.ar    1  UNL1        0.0815
      6 C         140.0051  143.3846  159.9691 C.ar    1  UNL1        0.0214
      7 C         139.8034  143.7150  158.5199 C.ar    1  UNL1        0.0312
      8 C         140.4169  142.8481  157.4606 C.ar    1  UNL1        0.1402
      9 F         140.2152  143.1785  156.0114 F       1  UNL1       -0.2042
     10 C         141.2321  141.6508  157.8505 C.ar    1  UNL1        0.0313
     11 C         141.4338  141.3205  159.2996 C.ar    1  UNL1        0.0243
     12 C         142.0389  140.3293  163.6473 C.ar    1  UNL1        0.0176
     13 C         142.2314  141.4302  164.6478 C.ar    1  UNL1        0.0012
     14 C         142.4331  141.0997  166.0969 C.ar    1  UNL1       -0.0029
     15 C         142.4424  139.6684  166.5456 C.ar    1  UNL1       -0.0061
     16 C         142.2499  138.5676  165.5451 C.ar    1  UNL1       -0.0029
     17 C         142.0482  138.8980  164.0960 C.ar    1  UNL1        0.0012
     18 C         142.6441  139.3380  167.9948 C.3     1  UNL1        0.0993
     19 N         141.8337  140.0398  169.0439 N.3     1  UNL1       -0.2646
     20 C         140.3363  140.0462  168.9552 C.3     1  UNL1        0.1049
     21 C         139.5258  140.7480  170.0043 C.3     1  UNL1        0.1595
     22 O         140.2127  141.4433  171.1422 O.3     1  UNL1       -0.3508
     23 C         141.7101  141.4369  171.2309 C.3     1  UNL1        0.1595
     24 C         142.5206  140.7351  170.1817 C.3     1  UNL1        0.1049
     25 O         144.1780  139.6373  158.0183 O.2     1  UNL1       -0.2701
     26 C         142.8625  139.2563  158.6303 C.2     1  UNL1        0.2460
     27 N         142.1606  138.0084  158.1830 N.am    1  UNL1       -0.2994
     28 H         141.2973  137.7584  158.5846 H       1  UNL1        0.1498
     29 C         142.7741  137.1416  157.1236 C.3     1  UNL1        0.1070
     30 C         141.9243  136.1591  156.3734 C.3     1  UNL1        0.0936
     31 N         142.2749  134.7008  156.3864 N.3     1  UNL1       -0.2712
     32 C         141.6749  133.6418  155.5097 C.3     1  UNL1        0.0722
     33 C         142.3163  132.3318  155.8599 C.3     1  UNL1        0.0188
     34 C         143.3127  132.5812  156.9531 C.3     1  UNL1        0.0188
     35 C         143.2872  134.0452  157.2786 C.3     1  UNL1        0.0722
@<TRIPOS>BOND
     1    25    26    2
     2    26    27   am
     3    27    29    1
     4    29    30    1
     5    30    31    1
     6    31    32    1
     7    32    33    1
     8    33    34    1
     9    34    35    1
    10    26     1    1
    11     1     2   ar
    12     2     3   ar
    13     3    12    1
    14    12    13   ar
    15    13    14   ar
    16    14    15   ar
    17    15    18    1
    18    18    19    1
    19    19    20    1
    20    20    21    1
    21    21    22    1
    22    22    23    1
    23    23    24    1
    24    15    16   ar
    25    16    17   ar
    26     3     4   ar
    27     4     5   ar
    28     5     6   ar
    29     6     7   ar
    30     7     8   ar
    31     8     9    1
    32     8    10   ar
    33    10    11   ar
    34    35    31    1
    35    11     1   ar
    36    17    12   ar
    37    11     5   ar
    38    24    19    1
    39    27    28    1
