@<TRIPOS>MOLECULE
*****
 32 36 0 0 0
SMALL
GASTEIGER

@<TRIPOS>ATOM
      1 C         140.2561  138.1298  163.8617 C.2     1  UNL1        0.2257
      2 O         141.0760  136.8795  163.7411 O.2     1  UNL1       -0.2749
      3 N         139.7317  138.8045  162.6289 N.am    1  UNL1       -0.2760
      4 C         140.0271  138.2291  161.2756 C.3     1  UNL1        0.1149
      5 C         139.5027  138.9038  160.0429 C.3     1  UNL1        0.1141
      6 N         138.6828  140.1541  160.1635 N.pl3   1  UNL1       -0.2846
      7 C         138.3874  140.7296  161.5167 C.3     1  UNL1        0.1141
      8 C         138.9118  140.0548  162.7495 C.3     1  UNL1        0.1149
      9 C         138.1584  140.8289  158.9307 C.ar    1  UNL1        0.1632
     10 N         137.1182  140.2799  157.9999 N.ar    1  UNL1       -0.2225
     11 C         136.8990  141.2828  156.9062 C.ar    1  UNL1        0.1084
     12 C         135.9924  141.2827  155.7112 C.ar    1  UNL1        0.1185
     13 N         135.9907  142.4515  154.7711 N.ar    1  UNL1       -0.2407
     14 C         136.8955  143.6204  155.0260 C.ar    1  UNL1        0.0995
     15 C         137.8021  143.6205  156.2210 C.ar    1  UNL1        0.0287
     16 C         137.8038  142.4517  157.1611 C.ar    1  UNL1        0.0528
     17 S         138.5821  142.1711  158.4123 S.2     1  UNL1       -0.0514
     18 C         141.0377  139.4169  165.9788 C.3     1  UNL1        0.0851
     19 C         140.7422  139.9924  167.3322 C.3     1  UNL1        0.0096
     20 C         139.3696  139.8562  167.9217 C.3     1  UNL1        0.0005
     21 C         138.2925  139.1446  167.1578 C.3     1  UNL1        0.0005
     22 C         138.5880  138.5692  165.8045 C.3     1  UNL1        0.0096
     23 C         139.9606  138.7053  165.2150 C.3     1  UNL1        0.0853
     24 N         142.6708  140.5759  164.3237 N.am    1  UNL1       -0.2959
     25 C         142.4103  139.5530  165.3894 C.2     1  UNL1        0.2231
     26 O         143.5223  138.6662  165.8657 O.2     1  UNL1       -0.2751
     27 H         141.9409  141.1579  164.0111 H       1  UNL1        0.1502
     28 C         144.0434  140.7120  163.7343 C.3     1  UNL1        0.1364
     29 C         145.4299  141.2325  163.4961 C.3     1  UNL1        0.0353
     30 C         144.5601  141.8660  164.5411 C.3     1  UNL1        0.0353
     31 N         143.9633  138.4985  161.7109 N.1     1  UNL1       -0.1943
     32 C         144.0033  139.6052  162.7226 C.1     1  UNL1        0.0896
@<TRIPOS>BOND
     1    31    32    3
     2    32    28    1
     3    28    24    1
     4    24    25   am
     5    25    26    2
     6    18    25    1
     7    18    19    1
     8    19    20    1
     9    20    21    1
    10    21    22    1
    11    22    23    1
    12    23     1    1
    13     1     2    2
    14     1     3   am
    15     3     4    1
    16     4     5    1
    17     5     6    1
    18     6     9    1
    19     9    10   ar
    20    10    11   ar
    21    11    12   ar
    22    12    13   ar
    23    13    14   ar
    24    14    15   ar
    25    15    16   ar
    26    16    17   ar
    27     6     7    1
    28     7     8    1
    29    28    29    1
    30    29    30    1
    31    30    28    1
    32    23    18    1
    33     8     3    1
    34    17     9   ar
    35    16    11   ar
    36    24    27    1
@<TRIPOS>MOLECULE
*****
 32 36 0 0 0
SMALL
GASTEIGER

@<TRIPOS>ATOM
      1 C         140.7967  142.0947  163.0716 C.2     1  UNL1        0.2257
      2 O         139.4144  142.5858  163.3846 O.2     1  UNL1       -0.2749
      3 N         141.0182  141.1631  161.9170 N.am    1  UNL1       -0.2760
      4 C         139.8574  140.7228  161.0753 C.3     1  UNL1        0.1149
      5 C         140.0789  139.7912  159.9206 C.3     1  UNL1        0.1141
      6 N         141.4612  139.3001  159.6077 N.pl3   1  UNL1       -0.2846
      7 C         142.6220  139.7404  160.4494 C.3     1  UNL1        0.1141
      8 C         142.4005  140.6720  161.6040 C.3     1  UNL1        0.1149
      9 C         141.6826  138.3685  158.4531 C.ar    1  UNL1        0.1632
     10 N         142.9764  137.6986  158.0963 N.ar    1  UNL1       -0.2225
     11 C         142.7426  136.8594  156.8752 C.ar    1  UNL1        0.1084
     12 C         143.6536  135.9770  156.0743 C.ar    1  UNL1        0.1185
     13 N         143.1262  135.2459  154.8754 N.ar    1  UNL1       -0.2407
     14 C         141.6879  135.3972  154.4774 C.ar    1  UNL1        0.0995
     15 C         140.7769  136.2796  155.2784 C.ar    1  UNL1        0.0287
     16 C         141.3043  137.0107  156.4773 C.ar    1  UNL1        0.0528
     17 S         140.6492  137.9434  157.4524 S.2     1  UNL1       -0.0514
     18 C         142.2263  141.8666  165.2290 C.3     1  UNL1        0.0851
     19 C         143.3872  142.3071  166.0707 C.3     1  UNL1        0.0096
     20 C         144.2793  143.4159  165.5967 C.3     1  UNL1        0.0005
     21 C         144.0105  144.0843  164.2811 C.3     1  UNL1        0.0005
     22 C         142.8497  143.6439  163.4394 C.3     1  UNL1        0.0096
     23 C         141.9576  142.5351  163.9133 C.3     1  UNL1        0.0853
     24 N         139.9683  141.0709  166.2381 N.am    1  UNL1       -0.2959
     25 C         141.3342  140.7578  165.7030 C.2     1  UNL1        0.2231
     26 O         141.8080  139.3360  165.6418 O.2     1  UNL1       -0.2751
     27 H         139.6574  142.0041  166.2782 H       1  UNL1        0.1502
     28 C         139.0763  139.9621  166.7120 C.3     1  UNL1        0.1364
     29 C         138.0451  138.8730  166.6844 C.3     1  UNL1        0.0353
     30 C         138.3662  139.6339  165.4322 C.3     1  UNL1        0.0353
     31 N         139.8768  139.8483  169.6010 N.1     1  UNL1       -0.1943
     32 C         139.4766  139.9052  168.1566 C.1     1  UNL1        0.0896
@<TRIPOS>BOND
     1    31    32    3
     2    32    28    1
     3    28    24    1
     4    24    25   am
     5    25    26    2
     6    18    25    1
     7    18    19    1
     8    19    20    1
     9    20    21    1
    10    21    22    1
    11    22    23    1
    12    23     1    1
    13     1     2    2
    14     1     3   am
    15     3     4    1
    16     4     5    1
    17     5     6    1
    18     6     9    1
    19     9    10   ar
    20    10    11   ar
    21    11    12   ar
    22    12    13   ar
    23    13    14   ar
    24    14    15   ar
    25    15    16   ar
    26    16    17   ar
    27     6     7    1
    28     7     8    1
    29    28    29    1
    30    29    30    1
    31    30    28    1
    32    23    18    1
    33     8     3    1
    34    17     9   ar
    35    16    11   ar
    36    24    27    1
@<TRIPOS>MOLECULE
*****
 32 36 0 0 0
SMALL
GASTEIGER

@<TRIPOS>ATOM
      1 C         142.5474  143.3366  162.6768 C.2     1  UNL1        0.2257
      2 O         143.7893  144.1769  162.7152 O.2     1  UNL1       -0.2749
      3 N         142.4300  142.2166  161.6859 N.am    1  UNL1       -0.2760
      4 C         143.5544  141.9371  160.7333 C.3     1  UNL1        0.1149
      5 C         143.4370  140.8171  159.7424 C.3     1  UNL1        0.1141
      6 N         142.1951  139.9767  159.7040 N.pl3   1  UNL1       -0.2846
      7 C         141.0707  140.2563  160.6566 C.3     1  UNL1        0.1141
      8 C         141.1881  141.3763  161.6476 C.3     1  UNL1        0.1149
      9 C         142.0777  138.8568  158.7131 C.ar    1  UNL1        0.1632
     10 N         143.0443  137.7219  158.5465 N.ar    1  UNL1       -0.2225
     11 C         142.5370  136.8388  157.4453 C.ar    1  UNL1        0.1084
     12 C         143.0754  135.5744  156.8441 C.ar    1  UNL1        0.1185
     13 N         142.3336  134.8991  155.7290 N.ar    1  UNL1       -0.2407
     14 C         141.0535  135.4881  155.2149 C.ar    1  UNL1        0.0995
     15 C         140.5151  136.7525  155.8160 C.ar    1  UNL1        0.0287
     16 C         141.2569  137.4279  156.9312 C.ar    1  UNL1        0.0528
     17 S         140.9730  138.6750  157.7148 S.2     1  UNL1       -0.0514
     18 C         141.3003  142.8248  164.8978 C.3     1  UNL1        0.0851
     19 C         140.1758  143.1045  165.8504 C.3     1  UNL1        0.0096
     20 C         139.1741  144.1753  165.5346 C.3     1  UNL1        0.0005
     21 C         139.2968  144.9667  164.2662 C.3     1  UNL1        0.0005
     22 C         140.4212  144.6871  163.3136 C.3     1  UNL1        0.0096
     23 C         141.4230  143.6161  163.6294 C.3     1  UNL1        0.0853
     24 N         141.9084  140.3092  165.1252 N.am    1  UNL1       -0.2959
     25 C         142.3020  141.7539  165.2136 C.2     1  UNL1        0.2231
     26 O         143.6972  142.1278  165.6177 O.2     1  UNL1       -0.2751
     27 H         140.9926  140.0638  164.8599 H       1  UNL1        0.1502
     28 C         142.9101  139.2383  165.4409 C.3     1  UNL1        0.1364
     29 C         143.7267  138.2618  166.2345 C.3     1  UNL1        0.0353
     30 C         142.7251  139.1383  166.9261 C.3     1  UNL1        0.0353
     31 N         143.9759  138.6944  162.6899 N.1     1  UNL1       -0.1943
     32 C         143.4430  138.9663  164.0654 C.1     1  UNL1        0.0896
@<TRIPOS>BOND
     1    31    32    3
     2    32    28    1
     3    28    24    1
     4    24    25   am
     5    25    26    2
     6    18    25    1
     7    18    19    1
     8    19    20    1
     9    20    21    1
    10    21    22    1
    11    22    23    1
    12    23     1    1
    13     1     2    2
    14     1     3   am
    15     3     4    1
    16     4     5    1
    17     5     6    1
    18     6     9    1
    19     9    10   ar
    20    10    11   ar
    21    11    12   ar
    22    12    13   ar
    23    13    14   ar
    24    14    15   ar
    25    15    16   ar
    26    16    17   ar
    27     6     7    1
    28     7     8    1
    29    28    29    1
    30    29    30    1
    31    30    28    1
    32    23    18    1
    33     8     3    1
    34    17     9   ar
    35    16    11   ar
    36    24    27    1
@<TRIPOS>MOLECULE
*****
 32 36 0 0 0
SMALL
GASTEIGER

@<TRIPOS>ATOM
      1 C         137.9689  140.9863  163.4921 C.2     1  UNL1        0.2257
      2 O         136.8898  142.0161  163.3343 O.2     1  UNL1       -0.2749
      3 N         138.5667  140.3346  162.2805 N.am    1  UNL1       -0.2760
      4 C         138.0854  140.7128  160.9111 C.3     1  UNL1        0.1149
      5 C         138.6832  140.0611  159.6995 C.3     1  UNL1        0.1141
      6 N         139.7623  139.0313  159.8573 N.pl3   1  UNL1       -0.2846
      7 C         140.2437  138.6532  161.2267 C.3     1  UNL1        0.1141
      8 C         139.6459  139.3048  162.4383 C.3     1  UNL1        0.1149
      9 C         140.3602  138.3797  158.6457 C.ar    1  UNL1        0.1632
     10 N         139.5987  137.7537  157.5151 N.ar    1  UNL1       -0.2225
     11 C         140.5923  137.2267  156.5226 C.ar    1  UNL1        0.1084
     12 C         140.4222  136.5123  155.2148 C.ar    1  UNL1        0.1185
     13 N         141.6277  136.0981  154.4241 N.ar    1  UNL1       -0.2407
     14 C         143.0033  136.3983  154.9414 C.ar    1  UNL1        0.0995
     15 C         143.1734  137.1128  156.2493 C.ar    1  UNL1        0.0287
     16 C         141.9679  137.5270  157.0399 C.ar    1  UNL1        0.0528
     17 S         141.8244  138.2395  158.3520 S.2     1  UNL1       -0.0514
     18 C         139.4247  141.4903  165.5841 C.3     1  UNL1        0.0851
     19 C         139.9061  141.1121  166.9536 C.3     1  UNL1        0.0096
     20 C         139.4129  139.8518  167.6004 C.3     1  UNL1        0.0005
     21 C         138.4384  138.9696  166.8778 C.3     1  UNL1        0.0005
     22 C         137.9570  139.3478  165.5084 C.3     1  UNL1        0.0096
     23 C         138.4502  140.6081  164.8615 C.3     1  UNL1        0.0853
     24 N         140.9789  142.6849  163.8790 N.am    1  UNL1       -0.2959
     25 C         139.9179  142.7506  164.9373 C.2     1  UNL1        0.2231
     26 O         139.3501  144.0765  165.3488 O.2     1  UNL1       -0.2751
     27 H         141.3516  141.8146  163.6090 H       1  UNL1        0.1502
     28 C         141.4721  143.9452  163.2322 C.3     1  UNL1        0.1364
     29 C         142.3218  145.1513  162.9614 C.3     1  UNL1        0.0353
     30 C         142.6699  144.2268  164.0901 C.3     1  UNL1        0.0353
     31 N         139.4191  144.2573  161.0671 N.1     1  UNL1       -0.1943
     32 C         140.4456  144.1013  162.1497 C.1     1  UNL1        0.0896
@<TRIPOS>BOND
     1    31    32    3
     2    32    28    1
     3    28    24    1
     4    24    25   am
     5    25    26    2
     6    18    25    1
     7    18    19    1
     8    19    20    1
     9    20    21    1
    10    21    22    1
    11    22    23    1
    12    23     1    1
    13     1     2    2
    14     1     3   am
    15     3     4    1
    16     4     5    1
    17     5     6    1
    18     6     9    1
    19     9    10   ar
    20    10    11   ar
    21    11    12   ar
    22    12    13   ar
    23    13    14   ar
    24    14    15   ar
    25    15    16   ar
    26    16    17   ar
    27     6     7    1
    28     7     8    1
    29    28    29    1
    30    29    30    1
    31    30    28    1
    32    23    18    1
    33     8     3    1
    34    17     9   ar
    35    16    11   ar
    36    24    27    1
@<TRIPOS>MOLECULE
*****
 32 36 0 0 0
SMALL
GASTEIGER

@<TRIPOS>ATOM
      1 C         138.6863  140.3729  164.2389 C.2     1  UNL1        0.2257
      2 O         138.1618  139.3902  165.2434 O.2     1  UNL1       -0.2749
      3 N         139.1193  139.9002  162.8827 N.am    1  UNL1       -0.2760
      4 C         139.0276  138.4449  162.5311 C.3     1  UNL1        0.1149
      5 C         139.4605  137.9723  161.1749 C.3     1  UNL1        0.1141
      6 N         139.9851  138.9550  160.1703 N.pl3   1  UNL1       -0.2846
      7 C         140.0767  140.4103  160.5220 C.3     1  UNL1        0.1141
      8 C         139.6438  140.8829  161.8781 C.3     1  UNL1        0.1149
      9 C         140.4180  138.4824  158.8142 C.ar    1  UNL1        0.1632
     10 N         139.5190  137.9523  157.7367 N.ar    1  UNL1       -0.2225
     11 C         140.3713  137.5992  156.5539 C.ar    1  UNL1        0.1084
     12 C         140.0333  137.0340  155.2063 C.ar    1  UNL1        0.1185
     13 N         141.1211  136.7806  154.2050 N.ar    1  UNL1       -0.2407
     14 C         142.5468  137.0924  154.5515 C.ar    1  UNL1        0.0995
     15 C         142.8848  137.6576  155.8992 C.ar    1  UNL1        0.0287
     16 C         141.7970  137.9110  156.9004 C.ar    1  UNL1        0.0528
     17 S         141.8259  138.4569  158.2973 S.2     1  UNL1       -0.0514
     18 C         140.0410  142.3783  165.1837 C.3     1  UNL1        0.0851
     19 C         140.1326  143.8337  165.5353 C.3     1  UNL1        0.0096
     20 C         138.9611  144.7388  165.2938 C.3     1  UNL1        0.0005
     21 C         137.6981  144.1886  164.7006 C.3     1  UNL1        0.0005
     22 C         137.6064  142.7333  164.3489 C.3     1  UNL1        0.0096
     23 C         138.7780  141.8281  164.5905 C.3     1  UNL1        0.0853
     24 N         141.0357  140.2135  166.2201 N.am    1  UNL1       -0.2959
     25 C         141.2125  141.4732  165.4253 C.2     1  UNL1        0.2231
     26 O         142.5609  141.8279  164.8720 O.2     1  UNL1       -0.2751
     27 H         140.1507  139.9808  166.5833 H       1  UNL1        0.1502
     28 C         142.2071  139.3084  166.4617 C.3     1  UNL1        0.1364
     29 C         143.2444  138.2514  166.2234 C.3     1  UNL1        0.0353
     30 C         142.2275  138.5567  165.1639 C.3     1  UNL1        0.0353
     31 N         142.9800  140.1832  169.2253 N.1     1  UNL1       -0.1943
     32 C         142.5936  139.7458  167.8436 C.1     1  UNL1        0.0896
@<TRIPOS>BOND
     1    31    32    3
     2    32    28    1
     3    28    24    1
     4    24    25   am
     5    25    26    2
     6    18    25    1
     7    18    19    1
     8    19    20    1
     9    20    21    1
    10    21    22    1
    11    22    23    1
    12    23     1    1
    13     1     2    2
    14     1     3   am
    15     3     4    1
    16     4     5    1
    17     5     6    1
    18     6     9    1
    19     9    10   ar
    20    10    11   ar
    21    11    12   ar
    22    12    13   ar
    23    13    14   ar
    24    14    15   ar
    25    15    16   ar
    26    16    17   ar
    27     6     7    1
    28     7     8    1
    29    28    29    1
    30    29    30    1
    31    30    28    1
    32    23    18    1
    33     8     3    1
    34    17     9   ar
    35    16    11   ar
    36    24    27    1
@<TRIPOS>MOLECULE
*****
 32 36 0 0 0
SMALL
GASTEIGER

@<TRIPOS>ATOM
      1 C         138.5173  139.2466  161.5738 C.2     1  UNL1        0.2257
      2 O         137.1985  139.0416  160.8892 O.2     1  UNL1       -0.2749
      3 N         139.7303  139.6126  160.7708 N.am    1  UNL1       -0.2760
      4 C         139.6244  139.7736  159.2833 C.3     1  UNL1        0.1149
      5 C         140.8374  140.1396  158.4803 C.3     1  UNL1        0.1141
      6 N         142.1562  140.3446  159.1649 N.pl3   1  UNL1       -0.2846
      7 C         142.2620  140.1835  160.6524 C.3     1  UNL1        0.1141
      8 C         141.0491  139.8175  161.4554 C.3     1  UNL1        0.1149
      9 C         143.3692  140.7106  158.3620 C.ar    1  UNL1        0.1632
     10 N         143.8804  139.9815  157.1549 N.ar    1  UNL1       -0.2225
     11 C         145.1111  140.6902  156.6720 C.ar    1  UNL1        0.1084
     12 C         146.0369  140.4236  155.5223 C.ar    1  UNL1        0.1185
     13 N         147.2120  141.3241  155.2813 N.ar    1  UNL1       -0.2407
     14 C         147.4613  142.4913  156.1899 C.ar    1  UNL1        0.0995
     15 C         146.5355  142.7579  157.3395 C.ar    1  UNL1        0.0287
     16 C         145.3604  141.8574  157.5806 C.ar    1  UNL1        0.0528
     17 S         144.2838  141.8699  158.6250 S.2     1  UNL1       -0.0514
     18 C         138.5511  140.2895  163.9531 C.3     1  UNL1        0.0851
     19 C         138.6570  140.1284  165.4407 C.3     1  UNL1        0.0096
     20 C         138.8348  138.7633  166.0365 C.3     1  UNL1        0.0005
     21 C         138.9069  137.5593  165.1447 C.3     1  UNL1        0.0005
     22 C         138.8010  137.7204  163.6572 C.3     1  UNL1        0.0096
     23 C         138.6231  139.0855  163.0613 C.3     1  UNL1        0.0853
     24 N         139.5461  142.5829  163.2459 N.am    1  UNL1       -0.2959
     25 C         138.3732  141.6545  163.3573 C.2     1  UNL1        0.2231
     26 O         137.0224  142.0912  162.8730 O.2     1  UNL1       -0.2751
     27 H         140.4327  142.2963  163.5639 H       1  UNL1        0.1502
     28 C         139.3683  143.9479  162.6502 C.3     1  UNL1        0.1364
     29 C         139.0951  145.4198  162.5553 C.3     1  UNL1        0.0353
     30 C         139.0320  144.7295  163.8855 C.3     1  UNL1        0.0353
     31 N         139.9172  143.3329  159.7656 N.1     1  UNL1       -0.1943
     32 C         139.6428  143.6404  161.2079 C.1     1  UNL1        0.0896
@<TRIPOS>BOND
     1    31    32    3
     2    32    28    1
     3    28    24    1
     4    24    25   am
     5    25    26    2
     6    18    25    1
     7    18    19    1
     8    19    20    1
     9    20    21    1
    10    21    22    1
    11    22    23    1
    12    23     1    1
    13     1     2    2
    14     1     3   am
    15     3     4    1
    16     4     5    1
    17     5     6    1
    18     6     9    1
    19     9    10   ar
    20    10    11   ar
    21    11    12   ar
    22    12    13   ar
    23    13    14   ar
    24    14    15   ar
    25    15    16   ar
    26    16    17   ar
    27     6     7    1
    28     7     8    1
    29    28    29    1
    30    29    30    1
    31    30    28    1
    32    23    18    1
    33     8     3    1
    34    17     9   ar
    35    16    11   ar
    36    24    27    1
@<TRIPOS>MOLECULE
*****
 32 36 0 0 0
SMALL
GASTEIGER

@<TRIPOS>ATOM
      1 C         142.5500  141.7178  163.6335 C.2     1  UNL1        0.2257
      2 O         143.7654  141.5771  164.5013 O.2     1  UNL1       -0.2749
      3 N         142.4017  140.8672  162.4069 N.am    1  UNL1       -0.2760
      4 C         143.4688  139.8760  162.0481 C.3     1  UNL1        0.1149
      5 C         143.3205  139.0254  160.8215 C.3     1  UNL1        0.1141
      6 N         142.1051  139.1661  159.9537 N.pl3   1  UNL1       -0.2846
      7 C         141.0381  140.1574  160.3125 C.3     1  UNL1        0.1141
      8 C         141.1864  141.0079  161.5391 C.3     1  UNL1        0.1149
      9 C         141.9568  138.3156  158.7271 C.ar    1  UNL1        0.1632
     10 N         142.9912  137.3824  158.1709 N.ar    1  UNL1       -0.2225
     11 C         142.4218  136.7390  156.9414 C.ar    1  UNL1        0.1084
     12 C         142.9865  135.7346  155.9810 C.ar    1  UNL1        0.1185
     13 N         142.1649  135.2658  154.8169 N.ar    1  UNL1       -0.2407
     14 C         140.7786  135.8013  154.6132 C.ar    1  UNL1        0.0995
     15 C         140.2139  136.8056  155.5736 C.ar    1  UNL1        0.0287
     16 C         141.0355  137.2744  156.7377 C.ar    1  UNL1        0.0528
     17 S         140.7482  138.2488  157.8413 S.2     1  UNL1       -0.0514
     18 C         140.2787  142.2664  164.7693 C.3     1  UNL1        0.0851
     19 C         139.2116  143.2577  165.1282 C.3     1  UNL1        0.0096
     20 C         139.3489  144.6916  164.7100 C.3     1  UNL1        0.0005
     21 C         140.5531  145.1343  163.9330 C.3     1  UNL1        0.0005
     22 C         141.6202  144.1431  163.5742 C.3     1  UNL1        0.0096
     23 C         141.4830  142.7090  163.9924 C.3     1  UNL1        0.0853
     24 N         139.1740  139.9331  164.4766 N.am    1  UNL1       -0.2959
     25 C         140.1414  140.8324  165.1875 C.2     1  UNL1        0.2231
     26 O         140.9717  140.2977  166.3166 O.2     1  UNL1       -0.2751
     27 H         138.6291  140.2841  163.7356 H       1  UNL1        0.1502
     28 C         139.0367  138.4992  164.8948 C.3     1  UNL1        0.1364
     29 C         138.5944  137.2927  165.6687 C.3     1  UNL1        0.0353
     30 C         138.1107  138.6564  166.0643 C.3     1  UNL1        0.0353
     31 N         140.7935  137.1888  162.8462 N.1     1  UNL1       -0.1943
     32 C         139.9152  137.8440  163.8705 C.1     1  UNL1        0.0896
@<TRIPOS>BOND
     1    31    32    3
     2    32    28    1
     3    28    24    1
     4    24    25   am
     5    25    26    2
     6    18    25    1
     7    18    19    1
     8    19    20    1
     9    20    21    1
    10    21    22    1
    11    22    23    1
    12    23     1    1
    13     1     2    2
    14     1     3   am
    15     3     4    1
    16     4     5    1
    17     5     6    1
    18     6     9    1
    19     9    10   ar
    20    10    11   ar
    21    11    12   ar
    22    12    13   ar
    23    13    14   ar
    24    14    15   ar
    25    15    16   ar
    26    16    17   ar
    27     6     7    1
    28     7     8    1
    29    28    29    1
    30    29    30    1
    31    30    28    1
    32    23    18    1
    33     8     3    1
    34    17     9   ar
    35    16    11   ar
    36    24    27    1
@<TRIPOS>MOLECULE
*****
 32 36 0 0 0
SMALL
GASTEIGER

@<TRIPOS>ATOM
      1 C         142.2655  143.0541  164.2709 C.2     1  UNL1        0.2257
      2 O         143.1648  143.1054  165.4702 O.2     1  UNL1       -0.2749
      3 N         142.8428  142.7934  162.9112 N.am    1  UNL1       -0.2760
      4 C         144.3194  142.5840  162.7509 C.3     1  UNL1        0.1149
      5 C         144.8967  142.3232  161.3912 C.3     1  UNL1        0.1141
      6 N         143.9974  142.2720  160.1918 N.pl3   1  UNL1       -0.2846
      7 C         142.5208  142.4814  160.3521 C.3     1  UNL1        0.1141
      8 C         141.9435  142.7421  161.7118 C.3     1  UNL1        0.1149
      9 C         144.5747  142.0113  158.8321 C.ar    1  UNL1        0.1632
     10 N         145.7514  142.7153  158.2240 N.ar    1  UNL1       -0.2225
     11 C         145.9806  142.1399  156.8578 C.ar    1  UNL1        0.1084
     12 C         146.9980  142.4440  155.7985 C.ar    1  UNL1        0.1185
     13 N         146.9804  141.6884  154.5028 N.ar    1  UNL1       -0.2407
     14 C         145.9454  140.6287  154.2666 C.ar    1  UNL1        0.0995
     15 C         144.9280  140.3246  155.3259 C.ar    1  UNL1        0.0287
     16 C         144.9456  141.0802  156.6216 C.ar    1  UNL1        0.0528
     17 S         144.0767  141.0007  157.8417 S.2     1  UNL1       -0.0514
     18 C         139.8869  142.0899  164.6737 C.3     1  UNL1        0.0851
     19 C         138.4102  142.2994  164.8340 C.3     1  UNL1        0.0096
     20 C         137.8357  143.6825  164.7518 C.3     1  UNL1        0.0005
     21 C         138.7377  144.8562  164.5092 C.3     1  UNL1        0.0005
     22 C         140.2143  144.6468  164.3489 C.3     1  UNL1        0.0096
     23 C         140.7889  143.2636  164.4312 C.3     1  UNL1        0.0853
     24 N         140.4867  139.8315  163.5381 N.am    1  UNL1       -0.2959
     25 C         140.4615  140.7068  164.7560 C.2     1  UNL1        0.2231
     26 O         141.0108  140.1990  166.0561 O.2     1  UNL1       -0.2751
     27 H         140.1261  140.1648  162.6848 H       1  UNL1        0.1502
     28 C         141.0612  138.4483  163.6204 C.3     1  UNL1        0.1364
     29 C         141.1443  136.9676  163.8452 C.3     1  UNL1        0.0353
     30 C         139.8457  137.6870  164.0596 C.3     1  UNL1        0.0353
     31 N         143.8914  139.0102  162.7990 N.1     1  UNL1       -0.1943
     32 C         142.4763  138.7293  163.2097 C.1     1  UNL1        0.0896
@<TRIPOS>BOND
     1    31    32    3
     2    32    28    1
     3    28    24    1
     4    24    25   am
     5    25    26    2
     6    18    25    1
     7    18    19    1
     8    19    20    1
     9    20    21    1
    10    21    22    1
    11    22    23    1
    12    23     1    1
    13     1     2    2
    14     1     3   am
    15     3     4    1
    16     4     5    1
    17     5     6    1
    18     6     9    1
    19     9    10   ar
    20    10    11   ar
    21    11    12   ar
    22    12    13   ar
    23    13    14   ar
    24    14    15   ar
    25    15    16   ar
    26    16    17   ar
    27     6     7    1
    28     7     8    1
    29    28    29    1
    30    29    30    1
    31    30    28    1
    32    23    18    1
    33     8     3    1
    34    17     9   ar
    35    16    11   ar
    36    24    27    1
@<TRIPOS>MOLECULE
*****
 32 36 0 0 0
SMALL
GASTEIGER

@<TRIPOS>ATOM
      1 C         138.6407  139.9591  160.9525 C.2     1  UNL1        0.2257
      2 O         137.2128  139.7711  160.5333 O.2     1  UNL1       -0.2749
      3 N         138.9759  140.1716  162.3990 N.am    1  UNL1       -0.2760
      4 C         137.8833  140.1961  163.4264 C.3     1  UNL1        0.1149
      5 C         138.2186  140.4086  164.8729 C.3     1  UNL1        0.1141
      6 N         139.6465  140.5966  165.2921 N.pl3   1  UNL1       -0.2846
      7 C         140.7391  140.5720  164.2647 C.3     1  UNL1        0.1141
      8 C         140.4038  140.3596  162.8182 C.3     1  UNL1        0.1149
      9 C         139.9818  140.8090  166.7386 C.ar    1  UNL1        0.1632
     10 N         139.5557  139.9342  167.8801 N.ar    1  UNL1       -0.2225
     11 C         140.1126  140.5181  169.1446 C.ar    1  UNL1        0.1084
     12 C         140.0178  140.0843  170.5774 C.ar    1  UNL1        0.1185
     13 N         140.6933  140.8862  171.6500 N.ar    1  UNL1       -0.2407
     14 C         141.4636  142.1219  171.2900 C.ar    1  UNL1        0.0995
     15 C         141.5584  142.5557  169.8572 C.ar    1  UNL1        0.0287
     16 C         140.8829  141.7539  168.7846 C.ar    1  UNL1        0.0528
     17 S         140.8020  141.9336  167.2976 S.2     1  UNL1       -0.0514
     18 C         140.2982  141.2212  159.4002 C.3     1  UNL1        0.0851
     19 C         141.3909  141.1967  158.3728 C.3     1  UNL1        0.0096
     20 C         141.9186  139.8856  157.8703 C.3     1  UNL1        0.0005
     21 C         141.3537  138.5990  158.3952 C.3     1  UNL1        0.0005
     22 C         140.2610  138.6235  159.4226 C.3     1  UNL1        0.0096
     23 C         139.7333  139.9346  159.9251 C.3     1  UNL1        0.0853
     24 N         140.5593  143.3247  160.9026 N.am    1  UNL1       -0.2959
     25 C         139.7705  142.5323  159.9026 C.2     1  UNL1        0.2231
     26 O         138.4540  143.0511  159.4051 O.2     1  UNL1       -0.2751
     27 H         141.4235  142.9842  161.2291 H       1  UNL1        0.1502
     28 C         140.0316  144.6358  161.4051 C.3     1  UNL1        0.1364
     29 C         139.7461  146.1067  161.4749 C.3     1  UNL1        0.0353
     30 C         140.5458  145.5512  160.3339 C.3     1  UNL1        0.0353
     31 N         138.6367  143.7154  163.8964 N.1     1  UNL1       -0.1943
     32 C         139.3342  144.1756  162.6508 C.1     1  UNL1        0.0896
@<TRIPOS>BOND
     1    31    32    3
     2    32    28    1
     3    28    24    1
     4    24    25   am
     5    25    26    2
     6    18    25    1
     7    18    19    1
     8    19    20    1
     9    20    21    1
    10    21    22    1
    11    22    23    1
    12    23     1    1
    13     1     2    2
    14     1     3   am
    15     3     4    1
    16     4     5    1
    17     5     6    1
    18     6     9    1
    19     9    10   ar
    20    10    11   ar
    21    11    12   ar
    22    12    13   ar
    23    13    14   ar
    24    14    15   ar
    25    15    16   ar
    26    16    17   ar
    27     6     7    1
    28     7     8    1
    29    28    29    1
    30    29    30    1
    31    30    28    1
    32    23    18    1
    33     8     3    1
    34    17     9   ar
    35    16    11   ar
    36    24    27    1
