@<TRIPOS>MOLECULE
*****
 28 31 0 0 0
SMALL
GASTEIGER

@<TRIPOS>ATOM
      1 C         142.9076  140.6481  161.6060 C.3     1  UNL1        0.0234
      2 C         141.4655  140.2819  161.4154 C.3     1  UNL1        0.1009
      3 O         141.1488  137.3296  161.8442 O.2     1  UNL1       -0.2745
      4 C         140.5026  138.2984  162.7896 C.2     1  UNL1        0.2313
      5 C         139.6980  137.7910  163.9495 C.3     1  UNL1        0.0861
      6 C         139.0518  138.7597  164.8950 C.3     1  UNL1        0.0173
      7 C         138.8068  137.3195  165.2352 C.3     1  UNL1        0.0010
      8 C         137.9545  137.2732  166.4687 C.3     1  UNL1        0.0000
      9 C         137.6728  138.6847  166.8908 C.3     1  UNL1        0.0000
     10 C         138.3510  139.6035  165.9182 C.3     1  UNL1        0.0010
     11 C         139.2101  140.2358  164.6806 C.3     1  UNL1        0.0861
     12 C         140.0147  140.7433  163.5208 C.2     1  UNL1        0.2313
     13 O         140.1730  142.2194  163.3064 O.2     1  UNL1       -0.2745
     14 N         140.6609  139.7746  162.5753 N.am    1  UNL1       -0.2299
     15 C         143.9088  139.5903  161.9646 C.3     1  UNL1        0.0191
     16 C         144.5090  139.5609  163.3390 C.3     1  UNL1        0.0723
     17 N         143.6946  139.9921  164.5226 N.3     1  UNL1       -0.2698
     18 C         143.5728  141.4489  164.8586 C.3     1  UNL1        0.0939
     19 C         142.7584  141.8800  166.0421 C.3     1  UNL1        0.1109
     20 N         142.0658  140.8543  166.8898 N.pl3   1  UNL1       -0.2753
     21 C         142.1876  139.3976  166.5537 C.3     1  UNL1        0.1109
     22 C         143.0020  138.9664  165.3701 C.3     1  UNL1        0.0939
     23 C         141.2514  141.2855  168.0733 C.ar    1  UNL1        0.2203
     24 N         141.3007  142.7107  168.5386 N.ar    1  UNL1       -0.2121
     25 C         140.4863  143.1418  169.7221 C.ar    1  UNL1        0.1034
     26 C         139.6226  142.1478  170.4404 C.ar    1  UNL1        0.0414
     27 C         139.5733  140.7226  169.9752 C.ar    1  UNL1        0.1034
     28 N         140.3877  140.2914  168.7916 N.ar    1  UNL1       -0.2121
@<TRIPOS>BOND
     1     3     4    2
     2     4     5    1
     3     5     6    1
     4     6     7    1
     5     7     8    1
     6     8     9    1
     7     9    10    1
     8     6    11    1
     9    11    12    1
    10    12    13    2
    11    12    14   am
    12    14     2    1
    13     2     1    1
    14     1    15    1
    15    15    16    1
    16    16    17    1
    17    17    18    1
    18    18    19    1
    19    19    20    1
    20    20    23    1
    21    23    24   ar
    22    24    25   ar
    23    25    26   ar
    24    26    27   ar
    25    27    28   ar
    26    20    21    1
    27    21    22    1
    28    14     4   am
    29    22    17    1
    30    10     6    1
    31    28    23   ar
@<TRIPOS>MOLECULE
*****
 28 31 0 0 0
SMALL
GASTEIGER

@<TRIPOS>ATOM
      1 C         143.5357  139.8110  161.1488 C.3     1  UNL1        0.0234
      2 C         142.0843  140.1893  161.1412 C.3     1  UNL1        0.1009
      3 O         140.8369  142.2877  162.8851 O.2     1  UNL1       -0.2745
      4 C         140.5745  140.8356  163.1544 C.2     1  UNL1        0.2313
      5 C         139.6885  140.4327  164.2957 C.3     1  UNL1        0.0861
      6 C         139.4260  138.9806  164.5651 C.3     1  UNL1        0.0173
      7 C         138.7365  139.9121  165.5174 C.3     1  UNL1        0.0010
      8 C         137.9583  139.0827  166.4953 C.3     1  UNL1        0.0000
      9 C         138.1668  137.6386  166.1475 C.3     1  UNL1        0.0000
     10 C         139.0740  137.5755  164.9545 C.3     1  UNL1        0.0010
     11 C         140.0497  137.9314  163.6932 C.3     1  UNL1        0.0861
     12 C         140.9358  138.3343  162.5519 C.2     1  UNL1        0.2313
     13 O         141.5594  137.2851  161.6800 O.2     1  UNL1       -0.2745
     14 N         141.1982  139.7864  162.2825 N.am    1  UNL1       -0.2299
     15 C         144.4534  140.3794  162.1904 C.3     1  UNL1        0.0191
     16 C         144.6078  139.6871  163.5121 C.3     1  UNL1        0.0723
     17 N         143.7734  140.1126  164.6838 N.3     1  UNL1       -0.2698
     18 C         143.0964  139.0809  165.5366 C.3     1  UNL1        0.0939
     19 C         142.2621  139.5065  166.7082 C.3     1  UNL1        0.1109
     20 N         142.1046  140.9638  167.0270 N.pl3   1  UNL1       -0.2753
     21 C         142.7816  141.9954  166.1742 C.3     1  UNL1        0.1109
     22 C         143.6160  141.5698  165.0026 C.3     1  UNL1        0.0939
     23 C         141.2703  141.3893  168.1986 C.ar    1  UNL1        0.2203
     24 N         141.3755  142.7900  168.7250 N.ar    1  UNL1       -0.2121
     25 C         140.5411  143.2155  169.8967 C.ar    1  UNL1        0.1034
     26 C         139.6015  142.2404  170.5418 C.ar    1  UNL1        0.0414
     27 C         139.4962  140.8398  170.0154 C.ar    1  UNL1        0.1034
     28 N         140.3306  140.4142  168.8438 N.ar    1  UNL1       -0.2121
@<TRIPOS>BOND
     1     3     4    2
     2     4     5    1
     3     5     6    1
     4     6     7    1
     5     7     8    1
     6     8     9    1
     7     9    10    1
     8     6    11    1
     9    11    12    1
    10    12    13    2
    11    12    14   am
    12    14     2    1
    13     2     1    1
    14     1    15    1
    15    15    16    1
    16    16    17    1
    17    17    18    1
    18    18    19    1
    19    19    20    1
    20    20    23    1
    21    23    24   ar
    22    24    25   ar
    23    25    26   ar
    24    26    27   ar
    25    27    28   ar
    26    20    21    1
    27    21    22    1
    28    14     4   am
    29    22    17    1
    30    10     6    1
    31    28    23   ar
@<TRIPOS>MOLECULE
*****
 28 31 0 0 0
SMALL
GASTEIGER

@<TRIPOS>ATOM
      1 C         139.7051  142.8756  159.9669 C.3     1  UNL1        0.0234
      2 C         138.5061  142.0330  160.2867 C.3     1  UNL1        0.1009
      3 O         139.4388  139.1873  160.1066 O.2     1  UNL1       -0.2745
      4 C         138.9707  139.7416  161.4196 C.2     1  UNL1        0.2313
      5 C         138.9691  138.8729  162.6425 C.3     1  UNL1        0.0861
      6 C         138.5010  139.4271  163.9554 C.3     1  UNL1        0.0173
      7 C         138.9365  137.9931  164.0189 C.3     1  UNL1        0.0010
      8 C         138.7682  137.5197  165.4322 C.3     1  UNL1        0.0000
      9 C         138.2287  138.6612  166.2423 C.3     1  UNL1        0.0000
     10 C         138.0636  139.8400  165.3295 C.3     1  UNL1        0.0010
     11 C         138.0347  140.8499  164.0455 C.3     1  UNL1        0.0861
     12 C         138.0363  141.7185  162.8226 C.2     1  UNL1        0.2313
     13 O         137.5700  143.1414  162.9126 O.2     1  UNL1       -0.2745
     14 N         138.5044  141.1644  161.5096 N.am    1  UNL1       -0.2299
     15 C         140.9875  142.6705  160.7174 C.3     1  UNL1        0.0191
     16 C         141.2777  143.4849  161.9432 C.3     1  UNL1        0.0723
     17 N         141.2766  142.8332  163.2943 N.3     1  UNL1       -0.2698
     18 C         141.8026  141.4377  163.4544 C.3     1  UNL1        0.0939
     19 C         141.8016  140.7861  164.8054 C.3     1  UNL1        0.1109
     20 N         141.2745  141.5301  165.9965 N.pl3   1  UNL1       -0.2753
     21 C         140.7485  142.9257  165.8365 C.3     1  UNL1        0.1109
     22 C         140.7495  143.5772  164.4854 C.3     1  UNL1        0.0939
     23 C         141.2734  140.8785  167.3475 C.ar    1  UNL1        0.2203
     24 N         140.0609  140.9744  168.2255 N.ar    1  UNL1       -0.2121
     25 C         140.0598  140.3228  169.5766 C.ar    1  UNL1        0.1034
     26 C         141.2712  139.5753  170.0497 C.ar    1  UNL1        0.0414
     27 C         142.4837  139.4795  169.1718 C.ar    1  UNL1        0.1034
     28 N         142.4848  140.1310  167.8207 N.ar    1  UNL1       -0.2121
@<TRIPOS>BOND
     1     3     4    2
     2     4     5    1
     3     5     6    1
     4     6     7    1
     5     7     8    1
     6     8     9    1
     7     9    10    1
     8     6    11    1
     9    11    12    1
    10    12    13    2
    11    12    14   am
    12    14     2    1
    13     2     1    1
    14     1    15    1
    15    15    16    1
    16    16    17    1
    17    17    18    1
    18    18    19    1
    19    19    20    1
    20    20    23    1
    21    23    24   ar
    22    24    25   ar
    23    25    26   ar
    24    26    27   ar
    25    27    28   ar
    26    20    21    1
    27    21    22    1
    28    14     4   am
    29    22    17    1
    30    10     6    1
    31    28    23   ar
@<TRIPOS>MOLECULE
*****
 28 31 0 0 0
SMALL
GASTEIGER

@<TRIPOS>ATOM
      1 C         139.7787  143.3486  160.4470 C.3     1  UNL1        0.0234
      2 C         138.5156  142.6186  160.7955 C.3     1  UNL1        0.1009
      3 O         137.6128  143.3921  163.5500 O.2     1  UNL1       -0.2745
      4 C         138.0656  141.9886  163.2756 C.2     1  UNL1        0.2313
      5 C         138.0669  140.9719  164.3784 C.3     1  UNL1        0.0861
      6 C         138.5197  139.5684  164.1041 C.3     1  UNL1        0.0173
      7 C         138.0981  139.8070  165.5238 C.3     1  UNL1        0.0010
      8 C         138.2607  138.5206  166.2780 C.3     1  UNL1        0.0000
      9 C         138.7827  137.4870  165.3245 C.3     1  UNL1        0.0000
     10 C         138.9428  138.1346  163.9810 C.3     1  UNL1        0.0010
     11 C         138.9711  139.1816  162.7270 C.3     1  UNL1        0.0861
     12 C         138.9697  140.1983  161.6241 C.2     1  UNL1        0.2313
     13 O         139.4212  139.8115  160.2469 O.2     1  UNL1       -0.2745
     14 N         138.5170  141.6018  161.8984 N.am    1  UNL1       -0.2299
     15 C         140.6545  143.8941  161.5358 C.3     1  UNL1        0.0191
     16 C         141.7555  143.0500  162.1063 C.3     1  UNL1        0.0723
     17 N         141.6253  142.4813  163.4882 N.3     1  UNL1       -0.2698
     18 C         141.9982  141.0521  163.7493 C.3     1  UNL1        0.0939
     19 C         141.8680  140.4834  165.1311 C.3     1  UNL1        0.1109
     20 N         141.3648  141.3440  166.2521 N.pl3   1  UNL1       -0.2753
     21 C         140.9919  142.7732  165.9909 C.3     1  UNL1        0.1109
     22 C         141.1221  143.3419  164.6090 C.3     1  UNL1        0.0939
     23 C         141.2346  140.7753  167.6339 C.ar    1  UNL1        0.2203
     24 N         139.9603  140.9592  168.4036 N.ar    1  UNL1       -0.2121
     25 C         139.8301  140.3905  169.7855 C.ar    1  UNL1        0.1034
     26 C         140.9742  139.6380  170.3977 C.ar    1  UNL1        0.0414
     27 C         142.2484  139.4542  169.6280 C.ar    1  UNL1        0.1034
     28 N         142.3787  140.0228  168.2462 N.ar    1  UNL1       -0.2121
@<TRIPOS>BOND
     1     3     4    2
     2     4     5    1
     3     5     6    1
     4     6     7    1
     5     7     8    1
     6     8     9    1
     7     9    10    1
     8     6    11    1
     9    11    12    1
    10    12    13    2
    11    12    14   am
    12    14     2    1
    13     2     1    1
    14     1    15    1
    15    15    16    1
    16    16    17    1
    17    17    18    1
    18    18    19    1
    19    19    20    1
    20    20    23    1
    21    23    24   ar
    22    24    25   ar
    23    25    26   ar
    24    26    27   ar
    25    27    28   ar
    26    20    21    1
    27    21    22    1
    28    14     4   am
    29    22    17    1
    30    10     6    1
    31    28    23   ar
@<TRIPOS>MOLECULE
*****
 28 31 0 0 0
SMALL
GASTEIGER

@<TRIPOS>ATOM
      1 C         138.1013  139.5755  160.4838 C.3     1  UNL1        0.0234
      2 C         139.2377  138.5965  160.4822 C.3     1  UNL1        0.1009
      3 O         141.9045  139.8999  160.0467 O.2     1  UNL1       -0.2745
      4 C         141.5836  139.2725  161.3709 C.2     1  UNL1        0.2313
      5 C         142.5962  139.2969  162.4773 C.3     1  UNL1        0.0861
      6 C         142.2754  138.6695  163.8015 C.3     1  UNL1        0.0173
      7 C         143.6432  139.2813  163.7316 C.3     1  UNL1        0.0010
      8 C         144.3110  139.0762  165.0590 C.3     1  UNL1        0.0000
      9 C         143.3560  138.3378  165.9492 C.3     1  UNL1        0.0000
     10 C         142.0979  138.0864  165.1721 C.3     1  UNL1        0.0010
     11 C         140.9420  138.0178  164.0193 C.3     1  UNL1        0.0861
     12 C         139.9295  137.9935  162.9129 C.2     1  UNL1        0.2313
     13 O         138.5961  137.3417  163.1306 O.2     1  UNL1       -0.2745
     14 N         140.2503  138.6208  161.5887 N.am    1  UNL1       -0.2299
     15 C         138.3802  141.0483  160.4277 C.3     1  UNL1        0.0191
     16 C         138.0577  141.9181  161.6064 C.3     1  UNL1        0.0723
     17 N         138.7382  141.6812  162.9221 N.3     1  UNL1       -0.2698
     18 C         138.0262  140.9348  164.0111 C.3     1  UNL1        0.0939
     19 C         138.7067  140.6979  165.3266 C.3     1  UNL1        0.1109
     20 N         140.0993  141.2074  165.5532 N.pl3   1  UNL1       -0.2753
     21 C         140.8112  141.9538  164.4642 C.3     1  UNL1        0.1109
     22 C         140.1306  142.1907  163.1486 C.3     1  UNL1        0.0939
     23 C         140.7798  140.9706  166.8687 C.ar    1  UNL1        0.2203
     24 N         140.1025  140.1506  167.9267 N.ar    1  UNL1       -0.2121
     25 C         140.7830  139.9137  169.2422 C.ar    1  UNL1        0.1034
     26 C         142.1408  140.4968  169.5000 C.ar    1  UNL1        0.0414
     27 C         142.8181  141.3167  168.4421 C.ar    1  UNL1        0.1034
     28 N         142.1376  141.5536  167.1265 N.ar    1  UNL1       -0.2121
@<TRIPOS>BOND
     1     3     4    2
     2     4     5    1
     3     5     6    1
     4     6     7    1
     5     7     8    1
     6     8     9    1
     7     9    10    1
     8     6    11    1
     9    11    12    1
    10    12    13    2
    11    12    14   am
    12    14     2    1
    13     2     1    1
    14     1    15    1
    15    15    16    1
    16    16    17    1
    17    17    18    1
    18    18    19    1
    19    19    20    1
    20    20    23    1
    21    23    24   ar
    22    24    25   ar
    23    25    26   ar
    24    26    27   ar
    25    27    28   ar
    26    20    21    1
    27    21    22    1
    28    14     4   am
    29    22    17    1
    30    10     6    1
    31    28    23   ar
@<TRIPOS>MOLECULE
*****
 28 31 0 0 0
SMALL
GASTEIGER

@<TRIPOS>ATOM
      1 C         140.0141  137.0369  163.8428 C.3     1  UNL1        0.0234
      2 C         138.8107  137.7251  164.4156 C.3     1  UNL1        0.1009
      3 O         139.6738  139.5565  166.6295 O.2     1  UNL1       -0.2745
      4 C         139.0847  140.1249  165.3725 C.2     1  UNL1        0.2313
      5 C         138.9272  141.6091  165.2225 C.3     1  UNL1        0.0861
      6 C         138.3382  142.1775  163.9655 C.3     1  UNL1        0.0173
      7 C         138.7223  143.2121  164.9815 C.3     1  UNL1        0.0010
      8 C         138.3904  144.5616  164.4170 C.3     1  UNL1        0.0000
      9 C         137.8012  144.3611  163.0523 C.3     1  UNL1        0.0000
     10 C         137.7689  142.8877  162.7732 C.3     1  UNL1        0.0010
     11 C         137.9067  141.2619  162.8586 C.3     1  UNL1        0.0861
     12 C         138.0642  139.7777  163.0086 C.2     1  UNL1        0.2313
     13 O         137.6326  138.8620  161.9017 O.2     1  UNL1       -0.2745
     14 N         138.6532  139.2092  164.2655 N.am    1  UNL1       -0.2299
     15 C         141.3704  137.2811  164.4352 C.3     1  UNL1        0.0191
     16 C         142.4085  138.0268  163.6501 C.3     1  UNL1        0.0723
     17 N         142.0312  139.2683  162.8974 N.3     1  UNL1       -0.2698
     18 C         142.1819  140.6129  163.5449 C.3     1  UNL1        0.0939
     19 C         141.8047  141.8543  162.7922 C.3     1  UNL1        0.1109
     20 N         141.2768  141.7511  161.3919 N.pl3   1  UNL1       -0.2753
     21 C         141.1261  140.4065  160.7445 C.3     1  UNL1        0.1109
     22 C         141.5033  139.1651  161.4972 C.3     1  UNL1        0.0939
     23 C         140.8996  142.9925  160.6393 C.ar    1  UNL1        0.2203
     24 N         140.9118  144.3227  161.3324 N.ar    1  UNL1       -0.2121
     25 C         140.5345  145.5642  160.5797 C.ar    1  UNL1        0.1034
     26 C         140.1451  145.4754  159.1339 C.ar    1  UNL1        0.0414
     27 C         140.1329  144.1452  158.4408 C.ar    1  UNL1        0.1034
     28 N         140.5101  142.9037  159.1934 N.ar    1  UNL1       -0.2121
@<TRIPOS>BOND
     1     3     4    2
     2     4     5    1
     3     5     6    1
     4     6     7    1
     5     7     8    1
     6     8     9    1
     7     9    10    1
     8     6    11    1
     9    11    12    1
    10    12    13    2
    11    12    14   am
    12    14     2    1
    13     2     1    1
    14     1    15    1
    15    15    16    1
    16    16    17    1
    17    17    18    1
    18    18    19    1
    19    19    20    1
    20    20    23    1
    21    23    24   ar
    22    24    25   ar
    23    25    26   ar
    24    26    27   ar
    25    27    28   ar
    26    20    21    1
    27    21    22    1
    28    14     4   am
    29    22    17    1
    30    10     6    1
    31    28    23   ar
@<TRIPOS>MOLECULE
*****
 28 31 0 0 0
SMALL
GASTEIGER

@<TRIPOS>ATOM
      1 C         141.1304  139.7957  169.2884 C.3     1  UNL1        0.0234
      2 C         142.5272  139.7606  168.7429 C.3     1  UNL1        0.1009
      3 O         143.2098  142.6754  168.9398 O.2     1  UNL1       -0.2745
      4 C         143.2100  141.9935  167.6036 C.2     1  UNL1        0.2313
      5 C         143.5515  142.7692  166.3660 C.3     1  UNL1        0.0861
      6 C         143.5518  142.0875  165.0298 C.3     1  UNL1        0.0173
      7 C         143.9118  143.5425  164.9725 C.3     1  UNL1        0.0010
      8 C         144.1757  143.8984  163.5394 C.3     1  UNL1        0.0000
      9 C         143.9788  142.6635  162.7111 C.3     1  UNL1        0.0000
     10 C         143.5932  141.5442  163.6323 C.3     1  UNL1        0.0010
     11 C         143.2105  140.6301  164.9314 C.3     1  UNL1        0.0861
     12 C         142.8690  139.8545  166.1690 C.2     1  UNL1        0.2313
     13 O         142.5277  138.3972  166.0705 O.2     1  UNL1       -0.2745
     14 N         142.8687  140.5362  167.5051 N.am    1  UNL1       -0.2299
     15 C         140.1010  140.6857  168.6573 C.3     1  UNL1        0.0191
     16 C         139.4387  140.2748  167.3756 C.3     1  UNL1        0.0723
     17 N         139.6295  141.0969  166.1356 N.3     1  UNL1       -0.2698
     18 C         139.5730  140.4437  164.7865 C.3     1  UNL1        0.0939
     19 C         139.7638  141.2658  163.5465 C.3     1  UNL1        0.1109
     20 N         140.0112  142.7413  163.6556 N.pl3   1  UNL1       -0.2753
     21 C         140.0677  143.3946  165.0047 C.3     1  UNL1        0.1109
     22 C         139.8769  142.5724  166.2447 C.3     1  UNL1        0.0939
     23 C         140.2020  143.5635  162.4156 C.ar    1  UNL1        0.2203
     24 N         140.6535  142.9088  161.1437 N.ar    1  UNL1       -0.2121
     25 C         140.8443  143.7310  159.9037 C.ar    1  UNL1        0.1034
     26 C         140.5837  145.2078  159.9356 C.ar    1  UNL1        0.0414
     27 C         140.1322  145.8624  161.2074 C.ar    1  UNL1        0.1034
     28 N         139.9413  145.0404  162.4474 N.ar    1  UNL1       -0.2121
@<TRIPOS>BOND
     1     3     4    2
     2     4     5    1
     3     5     6    1
     4     6     7    1
     5     7     8    1
     6     8     9    1
     7     9    10    1
     8     6    11    1
     9    11    12    1
    10    12    13    2
    11    12    14   am
    12    14     2    1
    13     2     1    1
    14     1    15    1
    15    15    16    1
    16    16    17    1
    17    17    18    1
    18    18    19    1
    19    19    20    1
    20    20    23    1
    21    23    24   ar
    22    24    25   ar
    23    25    26   ar
    24    26    27   ar
    25    27    28   ar
    26    20    21    1
    27    21    22    1
    28    14     4   am
    29    22    17    1
    30    10     6    1
    31    28    23   ar
@<TRIPOS>MOLECULE
*****
 28 31 0 0 0
SMALL
GASTEIGER

@<TRIPOS>ATOM
      1 C         141.9742  138.3841  161.5859 C.3     1  UNL1        0.0234
      2 C         141.7237  139.7818  161.1024 C.3     1  UNL1        0.1009
      3 O         143.2232  141.2736  163.2299 O.2     1  UNL1       -0.2745
      4 C         141.7531  141.5073  163.0445 C.2     1  UNL1        0.2313
      5 C         141.0329  142.4869  163.9229 C.3     1  UNL1        0.0861
      6 C         139.5628  142.7207  163.7376 C.3     1  UNL1        0.0173
      7 C         140.1764  143.5357  164.8373 C.3     1  UNL1        0.0010
      8 C         139.0953  144.3759  165.4498 C.3     1  UNL1        0.0000
      9 C         137.8137  144.0803  164.7287 C.3     1  UNL1        0.0000
     10 C         138.1026  143.0572  163.6705 C.3     1  UNL1        0.0010
     11 C         138.8131  141.9748  162.6739 C.3     1  UNL1        0.0861
     12 C         139.5333  140.9952  161.7955 C.2     1  UNL1        0.2313
     13 O         138.7835  140.2493  160.7318 O.2     1  UNL1       -0.2745
     14 N         141.0033  140.7614  161.9808 N.am    1  UNL1       -0.2299
     15 C         140.8730  137.6113  162.2491 C.3     1  UNL1        0.0191
     16 C         141.0135  137.1831  163.6798 C.3     1  UNL1        0.0723
     17 N         141.1575  138.2134  164.7605 N.3     1  UNL1       -0.2698
     18 C         142.5050  138.4894  165.3588 C.3     1  UNL1        0.0939
     19 C         142.6489  139.5197  166.4394 C.3     1  UNL1        0.1109
     20 N         141.4454  140.2740  166.9217 N.pl3   1  UNL1       -0.2753
     21 C         140.0979  139.9979  166.3233 C.3     1  UNL1        0.1109
     22 C         139.9540  138.9676  165.2427 C.3     1  UNL1        0.0939
     23 C         141.5893  141.3042  168.0023 C.ar    1  UNL1        0.2203
     24 N         140.4500  142.2292  168.3133 N.ar    1  UNL1       -0.2121
     25 C         140.5940  143.2595  169.3939 C.ar    1  UNL1        0.1034
     26 C         141.8772  143.3648  170.1636 C.ar    1  UNL1        0.0414
     27 C         143.0163  142.4399  169.8527 C.ar    1  UNL1        0.1034
     28 N         142.8725  141.4096  168.7721 N.ar    1  UNL1       -0.2121
@<TRIPOS>BOND
     1     3     4    2
     2     4     5    1
     3     5     6    1
     4     6     7    1
     5     7     8    1
     6     8     9    1
     7     9    10    1
     8     6    11    1
     9    11    12    1
    10    12    13    2
    11    12    14   am
    12    14     2    1
    13     2     1    1
    14     1    15    1
    15    15    16    1
    16    16    17    1
    17    17    18    1
    18    18    19    1
    19    19    20    1
    20    20    23    1
    21    23    24   ar
    22    24    25   ar
    23    25    26   ar
    24    26    27   ar
    25    27    28   ar
    26    20    21    1
    27    21    22    1
    28    14     4   am
    29    22    17    1
    30    10     6    1
    31    28    23   ar
@<TRIPOS>MOLECULE
*****
 28 31 0 0 0
SMALL
GASTEIGER

@<TRIPOS>ATOM
      1 C         142.8780  142.4433  159.3748 C.3     1  UNL1        0.0234
      2 C         142.1246  143.7204  159.6011 C.3     1  UNL1        0.1009
      3 O         143.3514  144.6518  162.1756 O.2     1  UNL1       -0.2745
      4 C         141.8841  144.3466  162.1111 C.2     1  UNL1        0.2313
      5 C         141.0304  144.5070  163.3339 C.3     1  UNL1        0.0861
      6 C         139.5632  144.2019  163.2696 C.3     1  UNL1        0.0173
      7 C         140.0332  144.6563  164.6196 C.3     1  UNL1        0.0010
      8 C         138.8499  144.6714  165.5414 C.3     1  UNL1        0.0000
      9 C         137.6486  144.2263  164.7611 C.3     1  UNL1        0.0000
     10 C         138.0895  143.9362  163.3570 C.3     1  UNL1        0.0010
     11 C         138.9497  143.7362  161.9824 C.3     1  UNL1        0.0861
     12 C         139.8035  143.5757  160.7596 C.2     1  UNL1        0.2313
     13 O         139.1901  143.1101  159.4724 O.2     1  UNL1       -0.2745
     14 N         141.2707  143.8809  160.8239 N.am    1  UNL1       -0.2299
     15 C         142.5709  141.2339  160.2072 C.3     1  UNL1        0.0191
     16 C         143.3982  140.9288  161.4207 C.3     1  UNL1        0.0723
     17 N         142.7902  141.0309  162.7881 N.3     1  UNL1       -0.2698
     18 C         141.3292  140.7517  162.9822 C.3     1  UNL1        0.0939
     19 C         140.7213  140.8538  164.3495 C.3     1  UNL1        0.1109
     20 N         141.5742  141.2352  165.5231 N.pl3   1  UNL1       -0.2753
     21 C         143.0352  141.5144  165.3291 C.3     1  UNL1        0.1109
     22 C         143.6431  141.4123  163.9616 C.3     1  UNL1        0.0939
     23 C         140.9663  141.3373  166.8904 C.ar    1  UNL1        0.2203
     24 N         141.0600  142.6222  167.6589 N.ar    1  UNL1       -0.2121
     25 C         140.4520  142.7243  169.0264 C.ar    1  UNL1        0.1034
     26 C         139.7503  141.5416  169.6254 C.ar    1  UNL1        0.0414
     27 C         139.6566  140.2568  168.8570 C.ar    1  UNL1        0.1034
     28 N         140.2645  140.1546  167.4895 N.ar    1  UNL1       -0.2121
@<TRIPOS>BOND
     1     3     4    2
     2     4     5    1
     3     5     6    1
     4     6     7    1
     5     7     8    1
     6     8     9    1
     7     9    10    1
     8     6    11    1
     9    11    12    1
    10    12    13    2
    11    12    14   am
    12    14     2    1
    13     2     1    1
    14     1    15    1
    15    15    16    1
    16    16    17    1
    17    17    18    1
    18    18    19    1
    19    19    20    1
    20    20    23    1
    21    23    24   ar
    22    24    25   ar
    23    25    26   ar
    24    26    27   ar
    25    27    28   ar
    26    20    21    1
    27    21    22    1
    28    14     4   am
    29    22    17    1
    30    10     6    1
    31    28    23   ar
