@<TRIPOS>MOLECULE
*****
 23 27 0 0 0
SMALL
GASTEIGER

@<TRIPOS>ATOM
      1 C         143.7040  142.9218  165.2494 C.3     1  UNL1        0.0896
      2 N         142.0801  141.7398  166.1470 N.3     1  UNL1       -0.2721
      3 C         142.0197  141.6824  166.9426 C.3     1  UNL1        0.0726
      4 C         141.4292  141.2525  167.2690 C.3     1  UNL1        0.0254
      5 C         140.3823  140.5041  167.0853 C.3     1  UNL1        0.0674
      6 C         141.2082  141.0774  168.1985 C.ar    1  UNL1        0.0142
      7 C         142.4266  141.9523  168.1964 C.ar    1  UNL1       -0.0216
      8 C         143.0482  142.3756  169.4943 C.ar    1  UNL1       -0.0012
      9 C         142.4514  141.9241  170.7943 C.ar    1  UNL1        0.0394
     10 C         141.2330  141.0491  170.7963 C.ar    1  UNL1        0.1674
     11 O         140.6362  140.5976  172.0962 O.3     1  UNL1       -0.5029
     12 C         140.6114  140.6258  169.4985 C.ar    1  UNL1        0.1677
     13 O         139.4167  139.7734  169.1887 O.3     1  UNL1       -0.4733
     14 C         139.2751  139.6981  167.6973 C.3     1  UNL1        0.2007
     15 C         138.2810  138.9999  166.8175 C.3     1  UNL1        0.1724
     16 O         137.1737  138.1940  167.4294 O.3     1  UNL1       -0.3765
     17 C         138.3941  139.1075  165.3255 C.2     1  UNL1        0.0017
     18 C         139.5013  139.9135  164.7136 C.2     1  UNL1       -0.0267
     19 C         140.4955  140.6117  165.5935 C.3     1  UNL1        0.0441
     20 C         141.6027  141.4176  164.9815 C.3     1  UNL1        0.0663
     21 C         142.6891  142.1667  166.7352 C.3     1  UNL1        0.0424
     22 H         141.0245  140.8621  172.9069 H       1  UNL1        0.2923
     23 H         136.6249  137.8124  166.7265 H       1  UNL1        0.2109
@<TRIPOS>BOND
     1     1     2    1
     2     2     3    1
     3     3     4    1
     4     5     4    1
     5     5     6    1
     6     6     7   ar
     7     7     8   ar
     8     8     9   ar
     9     9    10   ar
    10    10    11    1
    11    10    12   ar
    12    12    13    1
    13    14    13    1
    14    14    15    1
    15    15    16    1
    16    15    17    1
    17    17    18    2
    18    19    18    1
    19    19    20    1
    20    20    21    1
    21    20     2    1
    22    14     5    1
    23    19     5    1
    24    12     6   ar
    25    21     7    1
    26    11    22    1
    27    16    23    1
@<TRIPOS>MOLECULE
*****
 23 27 0 0 0
SMALL
GASTEIGER

@<TRIPOS>ATOM
      1 C         139.5960  143.9433  165.2822 C.3     1  UNL1        0.0896
      2 N         140.8026  142.2828  166.0741 N.3     1  UNL1       -0.2721
      3 C         140.8988  142.1994  166.8639 C.3     1  UNL1        0.0726
      4 C         141.3375  141.5956  167.1519 C.3     1  UNL1        0.0254
      5 C         142.0640  140.5469  166.9020 C.3     1  UNL1        0.0674
      6 C         141.5561  141.3467  168.0650 C.ar    1  UNL1        0.0142
      7 C         140.6961  142.5733  168.1405 C.ar    1  UNL1       -0.0216
      8 C         140.3449  143.1622  169.4746 C.ar    1  UNL1       -0.0012
      9 C         140.8537  142.5243  170.7333 C.ar    1  UNL1        0.0394
     10 C         141.7137  141.2977  170.6578 C.ar    1  UNL1        0.1674
     11 O         142.2224  140.6598  171.9165 O.3     1  UNL1       -0.5029
     12 C         142.0649  140.7089  169.3237 C.ar    1  UNL1        0.1677
     13 O         142.8872  139.5149  168.9386 O.3     1  UNL1       -0.4733
     14 C         142.8866  139.4148  167.4420 C.3     1  UNL1        0.2007
     15 C         143.5289  138.4390  166.5011 C.3     1  UNL1        0.1724
     16 O         144.3515  137.3069  167.0410 O.3     1  UNL1       -0.3765
     17 C         143.3485  138.5954  165.0201 C.2     1  UNL1        0.0017
     18 C         142.5259  139.7275  164.4802 C.2     1  UNL1       -0.0267
     19 C         141.8836  140.7033  165.4212 C.3     1  UNL1        0.0441
     20 C         141.0610  141.8354  164.8812 C.3     1  UNL1        0.0663
     21 C         140.4124  142.8792  166.6996 C.3     1  UNL1        0.0424
     22 H         142.0030  141.0277  172.7499 H       1  UNL1        0.2923
     23 H         144.6914  136.7744  166.3049 H       1  UNL1        0.2109
@<TRIPOS>BOND
     1     1     2    1
     2     2     3    1
     3     3     4    1
     4     5     4    1
     5     5     6    1
     6     6     7   ar
     7     7     8   ar
     8     8     9   ar
     9     9    10   ar
    10    10    11    1
    11    10    12   ar
    12    12    13    1
    13    14    13    1
    14    14    15    1
    15    15    16    1
    16    15    17    1
    17    17    18    2
    18    19    18    1
    19    19    20    1
    20    20    21    1
    21    20     2    1
    22    14     5    1
    23    19     5    1
    24    12     6   ar
    25    21     7    1
    26    11    22    1
    27    16    23    1
@<TRIPOS>MOLECULE
*****
 23 27 0 0 0
SMALL
GASTEIGER

@<TRIPOS>ATOM
      1 C         138.6516  144.7884  165.3514 C.3     1  UNL1        0.0896
      2 N         140.5809  143.7971  164.9842 N.3     1  UNL1       -0.2721
      3 C         140.7895  143.1559  165.4147 C.3     1  UNL1        0.0726
      4 C         141.4911  142.7954  165.2812 C.3     1  UNL1        0.0254
      5 C         142.5979  142.7606  164.6003 C.3     1  UNL1        0.0674
      6 C         141.8986  142.0203  165.7016 C.ar    1  UNL1        0.0142
      7 C         140.5717  142.2319  166.3683 C.ar    1  UNL1       -0.0216
      8 C         140.1280  141.3100  167.4652 C.ar    1  UNL1       -0.0012
      9 C         141.0112  140.1765  167.8955 C.ar    1  UNL1        0.0394
     10 C         142.3382  139.9650  167.2288 C.ar    1  UNL1        0.1674
     11 O         143.2214  138.8316  167.6591 O.3     1  UNL1       -0.5029
     12 C         142.7819  140.8869  166.1319 C.ar    1  UNL1        0.1677
     13 O         144.0270  140.9267  165.2965 O.3     1  UNL1       -0.4733
     14 C         143.9134  142.0847  164.3499 C.3     1  UNL1        0.2007
     15 C         144.8378  142.6110  163.2923 C.3     1  UNL1        0.1724
     16 O         146.1532  141.9351  163.0420 O.3     1  UNL1       -0.3765
     17 C         144.4467  143.8133  162.4851 C.2     1  UNL1        0.0017
     18 C         143.1312  144.4892  162.7355 C.2     1  UNL1       -0.0267
     19 C         142.2068  143.9629  163.7931 C.3     1  UNL1        0.0441
     20 C         140.8914  144.6388  164.0435 C.3     1  UNL1        0.0663
     21 C         140.0235  143.4356  165.6607 C.3     1  UNL1        0.0424
     22 H         142.9442  138.2557  168.3443 H       1  UNL1        0.2923
     23 H         146.6245  142.3978  162.3316 H       1  UNL1        0.2109
@<TRIPOS>BOND
     1     1     2    1
     2     2     3    1
     3     3     4    1
     4     5     4    1
     5     5     6    1
     6     6     7   ar
     7     7     8   ar
     8     8     9   ar
     9     9    10   ar
    10    10    11    1
    11    10    12   ar
    12    12    13    1
    13    14    13    1
    14    14    15    1
    15    15    16    1
    16    15    17    1
    17    17    18    2
    18    19    18    1
    19    19    20    1
    20    20    21    1
    21    20     2    1
    22    14     5    1
    23    19     5    1
    24    12     6   ar
    25    21     7    1
    26    11    22    1
    27    16    23    1
@<TRIPOS>MOLECULE
*****
 23 27 0 0 0
SMALL
GASTEIGER

@<TRIPOS>ATOM
      1 C         139.0559  139.3694  166.6617 C.3     1  UNL1        0.0896
      2 N         140.7896  140.3167  165.6938 N.3     1  UNL1       -0.2721
      3 C         140.7406  141.0727  165.4367 C.3     1  UNL1        0.0726
      4 C         141.3710  141.4171  165.0847 C.3     1  UNL1        0.0254
      5 C         142.6021  141.3071  164.6819 C.3     1  UNL1        0.0674
      6 C         141.4868  142.3095  164.7188 C.ar    1  UNL1        0.0142
      7 C         140.0862  142.2335  165.2502 C.ar    1  UNL1       -0.0216
      8 C         139.1783  143.4229  165.1445 C.ar    1  UNL1       -0.0012
      9 C         139.6711  144.6883  164.5074 C.ar    1  UNL1        0.0394
     10 C         141.0717  144.7642  163.9760 C.ar    1  UNL1        0.1674
     11 O         141.5645  146.0296  163.3389 O.3     1  UNL1       -0.5029
     12 C         141.9796  143.5749  164.0817 C.ar    1  UNL1        0.1677
     13 O         143.3994  143.3545  163.6510 O.3     1  UNL1       -0.4733
     14 C         143.7842  141.9530  164.0220 C.3     1  UNL1        0.2007
     15 C         145.0582  141.1815  163.8441 C.3     1  UNL1        0.1724
     16 O         146.2402  141.8274  163.1842 O.3     1  UNL1       -0.3765
     17 C         145.1501  139.7640  164.3262 C.2     1  UNL1        0.0017
     18 C         143.9680  139.1181  164.9861 C.2     1  UNL1       -0.0267
     19 C         142.6940  139.8897  165.1640 C.3     1  UNL1        0.0441
     20 C         141.5119  139.2438  165.8239 C.3     1  UNL1        0.0663
     21 C         140.0018  140.8359  165.7885 C.3     1  UNL1        0.0424
     22 H         140.9974  146.7725  163.2729 H       1  UNL1        0.2923
     23 H         146.9758  141.1961  163.1490 H       1  UNL1        0.2109
@<TRIPOS>BOND
     1     1     2    1
     2     2     3    1
     3     3     4    1
     4     5     4    1
     5     5     6    1
     6     6     7   ar
     7     7     8   ar
     8     8     9   ar
     9     9    10   ar
    10    10    11    1
    11    10    12   ar
    12    12    13    1
    13    14    13    1
    14    14    15    1
    15    15    16    1
    16    15    17    1
    17    17    18    2
    18    19    18    1
    19    19    20    1
    20    20    21    1
    21    20     2    1
    22    14     5    1
    23    19     5    1
    24    12     6   ar
    25    21     7    1
    26    11    22    1
    27    16    23    1
@<TRIPOS>MOLECULE
*****
 23 27 0 0 0
SMALL
GASTEIGER

@<TRIPOS>ATOM
      1 C         141.0234  140.2059  167.4290 C.3     1  UNL1        0.0896
      2 N         139.8550  140.2940  165.5670 N.3     1  UNL1       -0.2721
      3 C         139.5870  140.9973  165.2958 C.3     1  UNL1        0.0726
      4 C         139.1621  141.0293  164.6187 C.3     1  UNL1        0.0254
      5 C         138.6334  140.3861  163.6204 C.3     1  UNL1        0.0674
      6 C         138.7653  141.7827  164.1513 C.ar    1  UNL1        0.0142
      7 C         139.4441  142.3331  165.3704 C.ar    1  UNL1       -0.0216
      8 C         139.4079  143.8067  165.6482 C.ar    1  UNL1       -0.0012
      9 C         138.6927  144.7300  164.7069 C.ar    1  UNL1        0.0394
     10 C         138.0138  144.1795  163.4878 C.ar    1  UNL1        0.1674
     11 O         137.2987  145.1028  162.5464 O.3     1  UNL1       -0.5029
     12 C         138.0501  142.7060  163.2100 C.ar    1  UNL1        0.1677
     13 O         137.4763  141.8799  162.0972 O.3     1  UNL1       -0.4733
     14 C         137.8368  140.4461  162.3508 C.3     1  UNL1        0.2007
     15 C         137.5426  139.1875  161.5897 C.3     1  UNL1        0.1724
     16 O         136.7459  139.2476  160.3202 O.3     1  UNL1       -0.3765
     17 C         138.0450  137.8687  162.0982 C.2     1  UNL1        0.0017
     18 C         138.8416  137.8087  163.3678 C.2     1  UNL1       -0.0267
     19 C         139.1359  139.0674  164.1288 C.3     1  UNL1        0.0441
     20 C         139.9325  139.0073  165.3984 C.3     1  UNL1        0.0663
     21 C         140.0207  141.1102  166.0202 C.3     1  UNL1        0.0424
     22 H         137.2760  146.0233  162.7199 H       1  UNL1        0.2923
     23 H         136.6475  138.3533  159.9576 H       1  UNL1        0.2109
@<TRIPOS>BOND
     1     1     2    1
     2     2     3    1
     3     3     4    1
     4     5     4    1
     5     5     6    1
     6     6     7   ar
     7     7     8   ar
     8     8     9   ar
     9     9    10   ar
    10    10    11    1
    11    10    12   ar
    12    12    13    1
    13    14    13    1
    14    14    15    1
    15    15    16    1
    16    15    17    1
    17    17    18    2
    18    19    18    1
    19    19    20    1
    20    20    21    1
    21    20     2    1
    22    14     5    1
    23    19     5    1
    24    12     6   ar
    25    21     7    1
    26    11    22    1
    27    16    23    1
@<TRIPOS>MOLECULE
*****
 23 27 0 0 0
SMALL
GASTEIGER

@<TRIPOS>ATOM
      1 C         141.3720  139.9347  168.2351 C.3     1  UNL1        0.0896
      2 N         140.2701  140.8641  166.5732 N.3     1  UNL1       -0.2721
      3 C         139.9729  140.4090  165.9862 C.3     1  UNL1        0.0726
      4 C         139.5722  140.7470  165.3819 C.3     1  UNL1        0.0254
      5 C         139.1180  141.8358  164.8358 C.3     1  UNL1        0.0674
      6 C         139.1508  140.3549  164.5994 C.ar    1  UNL1        0.0142
      7 C         139.7520  139.2264  165.3837 C.ar    1  UNL1       -0.0216
      8 C         139.6220  137.8164  164.8888 C.ar    1  UNL1       -0.0012
      9 C         138.8910  137.5348  163.6096 C.ar    1  UNL1        0.0394
     10 C         138.2899  138.6634  162.8254 C.ar    1  UNL1        0.1674
     11 O         137.5589  138.3818  161.5462 O.3     1  UNL1       -0.5029
     12 C         138.4198  140.0733  163.3202 C.ar    1  UNL1        0.1677
     13 O         137.9352  141.3803  162.7661 O.3     1  UNL1       -0.4733
     14 C         138.3667  142.4695  163.7027 C.3     1  UNL1        0.2007
     15 C         138.1725  143.9565  163.6703 C.3     1  UNL1        0.1724
     16 O         137.4212  144.5902  162.5372 O.3     1  UNL1       -0.3765
     17 C         138.7297  144.8099  164.7709 C.2     1  UNL1        0.0017
     18 C         139.4811  144.1762  165.9040 C.2     1  UNL1       -0.0267
     19 C         139.6752  142.6891  165.9364 C.3     1  UNL1        0.0441
     20 C         140.4265  142.0554  167.0695 C.3     1  UNL1        0.0663
     21 C         140.3725  139.9216  166.5592 C.3     1  UNL1        0.0424
     22 H         137.4777  137.5010  161.2371 H       1  UNL1        0.2923
     23 H         137.3870  145.5506  162.6689 H       1  UNL1        0.2109
@<TRIPOS>BOND
     1     1     2    1
     2     2     3    1
     3     3     4    1
     4     5     4    1
     5     5     6    1
     6     6     7   ar
     7     7     8   ar
     8     8     9   ar
     9     9    10   ar
    10    10    11    1
    11    10    12   ar
    12    12    13    1
    13    14    13    1
    14    14    15    1
    15    15    16    1
    16    15    17    1
    17    17    18    2
    18    19    18    1
    19    19    20    1
    20    20    21    1
    21    20     2    1
    22    14     5    1
    23    19     5    1
    24    12     6   ar
    25    21     7    1
    26    11    22    1
    27    16    23    1
@<TRIPOS>MOLECULE
*****
 23 27 0 0 0
SMALL
GASTEIGER

@<TRIPOS>ATOM
      1 C         138.1296  138.8684  166.2383 C.3     1  UNL1        0.0896
      2 N         139.8800  140.1588  166.5716 N.3     1  UNL1       -0.2721
      3 C         140.0869  140.3680  167.3155 C.3     1  UNL1        0.0726
      4 C         140.7234  140.8373  167.4367 C.3     1  UNL1        0.0254
      5 C         141.7100  141.5078  166.9200 C.3     1  UNL1        0.0674
      6 C         141.1118  141.1837  168.2568 C.ar    1  UNL1        0.0142
      7 C         139.9235  140.3576  168.6510 C.ar    1  UNL1       -0.0216
      8 C         139.5588  140.2110  170.0986 C.ar    1  UNL1       -0.0012
      9 C         140.3826  140.8905  171.1521 C.ar    1  UNL1        0.0394
     10 C         141.5710  141.7166  170.7578 C.ar    1  UNL1        0.1674
     11 O         142.3947  142.3960  171.8113 O.3     1  UNL1       -0.5029
     12 C         141.9356  141.8632  169.3103 C.ar    1  UNL1        0.1677
     13 O         143.0428  142.6072  168.6245 O.3     1  UNL1       -0.4733
     14 C         142.9034  142.3876  167.1472 C.3     1  UNL1        0.2007
     15 C         143.7090  142.8751  165.9796 C.3     1  UNL1        0.1724
     16 O         144.9025  143.7549  166.2069 O.3     1  UNL1       -0.3765
     17 C         143.3212  142.4828  164.5847 C.2     1  UNL1        0.0017
     18 C         142.1278  141.6030  164.3575 C.2     1  UNL1       -0.0267
     19 C         141.3221  141.1155  165.5252 C.3     1  UNL1        0.0441
     20 C         140.1287  140.2357  165.2979 C.3     1  UNL1        0.0663
     21 C         139.3957  139.8706  167.3341 C.3     1  UNL1        0.0424
     22 H         142.1669  142.3044  172.7156 H       1  UNL1        0.2923
     23 H         145.3068  143.9780  165.3538 H       1  UNL1        0.2109
@<TRIPOS>BOND
     1     1     2    1
     2     2     3    1
     3     3     4    1
     4     5     4    1
     5     5     6    1
     6     6     7   ar
     7     7     8   ar
     8     8     9   ar
     9     9    10   ar
    10    10    11    1
    11    10    12   ar
    12    12    13    1
    13    14    13    1
    14    14    15    1
    15    15    16    1
    16    15    17    1
    17    17    18    2
    18    19    18    1
    19    19    20    1
    20    20    21    1
    21    20     2    1
    22    14     5    1
    23    19     5    1
    24    12     6   ar
    25    21     7    1
    26    11    22    1
    27    16    23    1
@<TRIPOS>MOLECULE
*****
 23 27 0 0 0
SMALL
GASTEIGER

@<TRIPOS>ATOM
      1 C         143.6958  139.9249  164.0850 C.3     1  UNL1        0.0896
      2 N         142.4047  140.3363  165.8181 N.3     1  UNL1       -0.2721
      3 C         141.7064  139.9540  165.8964 C.3     1  UNL1        0.0726
      4 C         141.2369  140.1036  166.5266 C.3     1  UNL1        0.0254
      5 C         141.0549  140.7664  167.6300 C.3     1  UNL1        0.0674
      6 C         140.3723  139.7385  166.7772 C.ar    1  UNL1        0.0142
      7 C         140.7682  139.0797  165.4891 C.ar    1  UNL1       -0.0216
      8 C         139.8620  138.0661  164.8556 C.ar    1  UNL1       -0.0012
      9 C         138.5598  137.7113  165.5101 C.ar    1  UNL1        0.0394
     10 C         138.1640  138.3701  166.7982 C.ar    1  UNL1        0.1674
     11 O         136.8618  138.0153  167.4528 O.3     1  UNL1       -0.5029
     12 C         139.0701  139.3837  167.4317 C.ar    1  UNL1        0.1677
     13 O         138.9480  140.1924  168.6891 O.3     1  UNL1       -0.4733
     14 C         140.1746  141.0470  168.8117 C.3     1  UNL1        0.2007
     15 C         140.6037  142.0443  169.8466 C.3     1  UNL1        0.1724
     16 O         139.7234  142.3248  171.0283 O.3     1  UNL1       -0.3765
     17 C         141.9132  142.7612  169.6999 C.2     1  UNL1        0.0017
     18 C         142.7935  142.4807  168.5182 C.2     1  UNL1       -0.0267
     19 C         142.3643  141.4833  167.4833 C.3     1  UNL1        0.0441
     20 C         143.2446  141.2027  166.3016 C.3     1  UNL1        0.0663
     21 C         142.0999  139.6997  165.1850 C.3     1  UNL1        0.0424
     22 H         136.2957  137.3822  167.0570 H       1  UNL1        0.2923
     23 H         140.1456  142.9887  171.5957 H       1  UNL1        0.2109
@<TRIPOS>BOND
     1     1     2    1
     2     2     3    1
     3     3     4    1
     4     5     4    1
     5     5     6    1
     6     6     7   ar
     7     7     8   ar
     8     8     9   ar
     9     9    10   ar
    10    10    11    1
    11    10    12   ar
    12    12    13    1
    13    14    13    1
    14    14    15    1
    15    15    16    1
    16    15    17    1
    17    17    18    2
    18    19    18    1
    19    19    20    1
    20    20    21    1
    21    20     2    1
    22    14     5    1
    23    19     5    1
    24    12     6   ar
    25    21     7    1
    26    11    22    1
    27    16    23    1
@<TRIPOS>MOLECULE
*****
 23 27 0 0 0
SMALL
GASTEIGER

@<TRIPOS>ATOM
      1 C         144.8432  143.7322  165.7523 C.3     1  UNL1        0.0896
      2 N         143.6842  141.9158  165.3078 N.3     1  UNL1       -0.2721
      3 C         143.0646  141.7132  165.7715 C.3     1  UNL1        0.0726
      4 C         142.6431  141.0528  165.6099 C.3     1  UNL1        0.0254
      5 C         142.4724  140.0169  164.8431 C.3     1  UNL1        0.0674
      6 C         141.8747  140.6625  166.0580 C.ar    1  UNL1        0.0142
      7 C         142.2366  141.9062  166.8144 C.ar    1  UNL1       -0.0216
      8 C         141.4387  142.3106  168.0186 C.ar    1  UNL1       -0.0012
      9 C         140.2791  141.4712  168.4664 C.ar    1  UNL1        0.0394
     10 C         139.9173  140.2274  167.7100 C.ar    1  UNL1        0.1674
     11 O         138.7576  139.3880  168.1578 O.3     1  UNL1       -0.5029
     12 C         140.7150  139.8231  166.5059 C.ar    1  UNL1        0.1677
     13 O         140.5960  138.6587  165.5677 O.3     1  UNL1       -0.4733
     14 C         141.6822  138.7785  164.5401 C.3     1  UNL1        0.2007
     15 C         142.0537  137.9200  163.3676 C.3     1  UNL1        0.1724
     16 O         141.2634  136.6815  163.0646 O.3     1  UNL1       -0.3765
     17 C         143.2155  138.2998  162.4981 C.2     1  UNL1        0.0017
     18 C         144.0058  139.5382  162.8011 C.2     1  UNL1       -0.0267
     19 C         143.6342  140.3968  163.9737 C.3     1  UNL1        0.0441
     20 C         144.4245  141.6352  164.2767 C.3     1  UNL1        0.0663
     21 C         143.4194  142.4331  166.0571 C.3     1  UNL1        0.0424
     22 H         138.2592  139.6406  168.9100 H       1  UNL1        0.2923
     23 H         141.6328  136.2461  162.2804 H       1  UNL1        0.2109
@<TRIPOS>BOND
     1     1     2    1
     2     2     3    1
     3     3     4    1
     4     5     4    1
     5     5     6    1
     6     6     7   ar
     7     7     8   ar
     8     8     9   ar
     9     9    10   ar
    10    10    11    1
    11    10    12   ar
    12    12    13    1
    13    14    13    1
    14    14    15    1
    15    15    16    1
    16    15    17    1
    17    17    18    2
    18    19    18    1
    19    19    20    1
    20    20    21    1
    21    20     2    1
    22    14     5    1
    23    19     5    1
    24    12     6   ar
    25    21     7    1
    26    11    22    1
    27    16    23    1
