@<TRIPOS>MOLECULE
*****
 38 42 0 0 0
SMALL
GASTEIGER

@<TRIPOS>ATOM
      1 C         140.9425  140.5982  162.7870 C.3     1  UNL1        0.1014
      2 C         142.8967  137.6360  158.8769 C.3     1  UNL1        0.0381
      3 C         142.7993  138.5391  160.0707 C.ar    1  UNL1        0.0074
      4 C         143.9531  139.1155  160.8367 C.ar    1  UNL1        0.0024
      5 C         143.3980  139.9570  161.9474 C.ar    1  UNL1        0.0039
      6 C         141.9012  139.9007  161.8680 C.ar    1  UNL1        0.0248
      7 S         141.5311  139.0244  160.7081 S.2     1  UNL1       -0.0940
      8 N         141.3978  141.0499  164.1430 N.am    1  UNL1       -0.3017
      9 C         141.8277  140.0395  165.1649 C.2     1  UNL1        0.2222
     10 O         141.8023  138.5774  164.8309 O.2     1  UNL1       -0.2751
     11 H         141.4144  142.0095  164.3623 H       1  UNL1        0.1497
     12 C         142.2829  140.4913  166.5209 C.3     1  UNL1        0.0769
     13 C         142.2170  139.5493  167.6864 C.3     1  UNL1        0.0147
     14 C         142.6723  140.0011  169.0425 C.3     1  UNL1        0.0671
     15 C         143.1933  141.3948  169.2328 C.3     1  UNL1        0.2640
     16 F         143.7598  142.6076  169.9098 F       1  UNL1       -0.2043
     17 F         143.3242  140.8740  170.6335 F       1  UNL1       -0.2043
     18 C         143.2591  142.3367  168.0673 C.3     1  UNL1        0.0671
     19 C         142.8039  141.8849  166.7114 C.3     1  UNL1        0.0147
     20 C         139.5289  140.8439  162.3500 C.3     1  UNL1        0.0419
     21 C         138.4079  140.7348  163.3408 C.3     1  UNL1        0.0741
     22 N         138.4184  139.6416  164.3678 N.3     1  UNL1       -0.2750
     23 C         138.2276  139.8180  165.8451 C.3     1  UNL1        0.0594
     24 C         138.3128  138.4655  166.4882 C.3     1  UNL1        0.0174
     25 C         138.5563  137.4533  165.4083 C.3     1  UNL1        0.0174
     26 C         138.6216  138.1802  164.0978 C.3     1  UNL1        0.0594
     27 C         138.6389  139.1579  162.9477 C.3     1  UNL1        0.0386
     28 C         138.4227  140.5811  163.3694 C.3     1  UNL1        0.0904
     29 C         138.2171  140.9112  164.8181 C.3     1  UNL1        0.0386
     30 N         138.4122  141.6744  162.3423 N.ar    1  UNL1       -0.3039
     31 C         138.1434  141.5044  160.8764 C.ar    1  UNL1        0.1433
     32 C         137.8380  140.2113  160.1802 C.3     1  UNL1        0.0738
     33 N         138.2338  142.8544  160.2290 N.ar    1  UNL1       -0.1337
     34 N         138.5584  143.8588  161.2946 N.ar    1  UNL1       -0.1337
     35 C         138.6687  143.1295  162.6008 C.ar    1  UNL1        0.1425
     36 C         138.9806  143.7469  163.9318 C.3     1  UNL1        0.0588
     37 C         140.2456  143.9685  164.7068 C.3     1  UNL1        0.0080
     38 C         137.8745  144.3052  164.7773 C.3     1  UNL1        0.0080
@<TRIPOS>BOND
     1     2     3    1
     2     3     4   ar
     3     4     5   ar
     4     5     6   ar
     5     6     1    1
     6     1    20    1
     7    20    21    1
     8    21    22    1
     9    22    23    1
    10    23    24    1
    11    24    25    1
    12    26    25    1
    13    26    27    1
    14    27    28    1
    15    28    30    1
    16    30    31   ar
    17    31    32    1
    18    31    33   ar
    19    33    34   ar
    20    34    35   ar
    21    35    36    1
    22    36    37    1
    23    36    38    1
    24    28    29    1
    25     1     8    1
    26     8     9   am
    27     9    10    2
    28     9    12    1
    29    12    13    1
    30    13    14    1
    31    14    15    1
    32    15    16    1
    33    15    17    1
    34    15    18    1
    35    18    19    1
    36     6     7   ar
    37     7     3   ar
    38    26    22    1
    39    35    30   ar
    40    19    12    1
    41    29    23    1
    42     8    11    1
@<TRIPOS>MOLECULE
*****
 38 42 0 0 0
SMALL
GASTEIGER

@<TRIPOS>ATOM
      1 C         140.8016  141.3668  163.2942 C.3     1  UNL1        0.1014
      2 C         139.7970  146.2480  161.5489 C.3     1  UNL1        0.0381
      3 C         140.3783  144.8715  161.6806 C.ar    1  UNL1        0.0074
      4 C         141.4204  144.2653  160.7880 C.ar    1  UNL1        0.0024
      5 C         141.7058  142.8787  161.2838 C.ar    1  UNL1        0.0039
      6 C         140.8401  142.6279  162.4828 C.ar    1  UNL1        0.0248
      7 S         140.0197  143.8595  162.7281 S.2     1  UNL1       -0.0940
      8 N         140.7579  141.4398  164.7919 N.am    1  UNL1       -0.3017
      9 C         141.8901  142.0727  165.5453 C.2     1  UNL1        0.2222
     10 O         143.0659  142.6328  164.8011 O.2     1  UNL1       -0.2751
     11 H         139.9862  141.0723  165.2803 H       1  UNL1        0.1497
     12 C         141.8464  142.1457  167.0428 C.3     1  UNL1        0.0769
     13 C         143.1219  142.2386  167.8267 C.3     1  UNL1        0.0147
     14 C         143.0782  142.3116  169.3243 C.3     1  UNL1        0.0671
     15 C         141.7590  142.2915  170.0380 C.3     1  UNL1        0.2640
     16 F         140.7626  142.3055  171.1592 F       1  UNL1       -0.2043
     17 F         142.6885  142.3893  171.2112 F       1  UNL1       -0.2043
     18 C         140.4835  142.1986  169.2541 C.3     1  UNL1        0.0671
     19 C         140.5272  142.1257  167.7565 C.3     1  UNL1        0.0147
     20 C         140.8067  140.0330  162.6081 C.3     1  UNL1        0.0419
     21 C         141.3950  138.8375  163.2970 C.3     1  UNL1        0.0741
     22 N         142.6967  138.9607  164.0322 N.3     1  UNL1       -0.2750
     23 C         142.9615  138.5091  165.4379 C.3     1  UNL1        0.0594
     24 C         144.3905  138.8264  165.7653 C.3     1  UNL1        0.0174
     25 C         145.0089  139.4741  164.5620 C.3     1  UNL1        0.0174
     26 C         143.9621  139.5572  163.4908 C.3     1  UNL1        0.0594
     27 C         142.7310  139.5078  162.6185 C.3     1  UNL1        0.0386
     28 C         141.5446  138.8853  163.2930 C.3     1  UNL1        0.0904
     29 C         141.6599  138.3859  164.7027 C.3     1  UNL1        0.0386
     30 N         140.2429  138.7621  162.5577 N.ar    1  UNL1       -0.3039
     31 C         140.0723  138.7191  161.0681 C.ar    1  UNL1        0.1433
     32 C         141.1735  138.7916  160.0521 C.3     1  UNL1        0.0738
     33 N         138.6073  138.5907  160.7728 N.ar    1  UNL1       -0.1337
     34 N         137.8724  138.5544  162.0799 N.ar    1  UNL1       -0.1337
     35 C         138.8833  138.6603  163.1831 C.ar    1  UNL1        0.1425
     36 C         138.5866  138.6639  164.6535 C.3     1  UNL1        0.0588
     37 C         138.2463  139.7365  165.6452 C.3     1  UNL1        0.0080
     38 C         138.5998  137.3772  165.4243 C.3     1  UNL1        0.0080
@<TRIPOS>BOND
     1     2     3    1
     2     3     4   ar
     3     4     5   ar
     4     5     6   ar
     5     6     1    1
     6     1    20    1
     7    20    21    1
     8    21    22    1
     9    22    23    1
    10    23    24    1
    11    24    25    1
    12    26    25    1
    13    26    27    1
    14    27    28    1
    15    28    30    1
    16    30    31   ar
    17    31    32    1
    18    31    33   ar
    19    33    34   ar
    20    34    35   ar
    21    35    36    1
    22    36    37    1
    23    36    38    1
    24    28    29    1
    25     1     8    1
    26     8     9   am
    27     9    10    2
    28     9    12    1
    29    12    13    1
    30    13    14    1
    31    14    15    1
    32    15    16    1
    33    15    17    1
    34    15    18    1
    35    18    19    1
    36     6     7   ar
    37     7     3   ar
    38    26    22    1
    39    35    30   ar
    40    19    12    1
    41    29    23    1
    42     8    11    1
@<TRIPOS>MOLECULE
*****
 38 42 0 0 0
SMALL
GASTEIGER

@<TRIPOS>ATOM
      1 C         141.0099  141.8575  163.7023 C.3     1  UNL1        0.1014
      2 C         144.8867  142.5952  160.1940 C.3     1  UNL1        0.0381
      3 C         144.0668  142.6585  161.4486 C.ar    1  UNL1        0.0074
      4 C         144.4270  143.4021  162.7006 C.ar    1  UNL1        0.0024
      5 C         143.3257  143.1926  163.6972 C.ar    1  UNL1        0.0039
      6 C         142.2849  142.3195  163.0612 C.ar    1  UNL1        0.0248
      7 S         142.7430  141.9894  161.6715 S.2     1  UNL1       -0.0940
      8 N         140.9062  141.7830  165.1969 N.am    1  UNL1       -0.3017
      9 C         141.6610  140.7276  165.9495 C.2     1  UNL1        0.2222
     10 O         142.5197  139.7467  165.2074 O.2     1  UNL1       -0.2751
     11 H         140.3426  142.4268  165.6840 H       1  UNL1        0.1497
     12 C         141.5573  140.6531  167.4440 C.3     1  UNL1        0.0769
     13 C         142.7789  140.8515  168.2914 C.3     1  UNL1        0.0147
     14 C         142.6752  140.7771  169.7860 C.3     1  UNL1        0.0671
     15 C         141.3497  140.5041  170.4331 C.3     1  UNL1        0.2640
     16 F         140.3249  140.2722  171.5036 F       1  UNL1       -0.2043
     17 F         142.2155  140.6220  171.6523 F       1  UNL1       -0.2043
     18 C         140.1280  140.3057  169.5856 C.3     1  UNL1        0.0671
     19 C         140.2318  140.3802  168.0911 C.3     1  UNL1        0.0147
     20 C         139.8389  141.4701  162.8489 C.3     1  UNL1        0.0419
     21 C         138.6077  140.8929  163.4823 C.3     1  UNL1        0.0741
     22 N         138.7055  139.6494  164.3154 N.3     1  UNL1       -0.2750
     23 C         138.0116  139.4074  165.6231 C.3     1  UNL1        0.0594
     24 C         138.3916  138.0380  166.1030 C.3     1  UNL1        0.0174
     25 C         139.3203  137.4336  165.0920 C.3     1  UNL1        0.0174
     26 C         139.5144  138.4295  163.9872 C.3     1  UNL1        0.0594
     27 C         139.5225  139.6041  163.0388 C.3     1  UNL1        0.0386
     28 C         138.6692  140.7492  163.4978 C.3     1  UNL1        0.0904
     29 C         137.9138  140.6509  164.7899 C.3     1  UNL1        0.0386
     30 N         138.5715  141.9928  162.6646 N.ar    1  UNL1       -0.3039
     31 C         138.3772  143.3875  163.1815 C.ar    1  UNL1        0.1433
     32 C         138.2466  143.7835  164.6224 C.3     1  UNL1        0.0738
     33 N         138.3365  144.3165  162.0046 N.ar    1  UNL1       -0.1337
     34 N         138.5056  143.4961  160.7604 N.ar    1  UNL1       -0.1337
     35 C         138.6508  142.0600  161.1682 C.ar    1  UNL1        0.1425
     36 C         138.8418  140.8953  160.2423 C.3     1  UNL1        0.0588
     37 C         140.0069  140.3669  159.4593 C.3     1  UNL1        0.0080
     38 C         137.6943  139.9753  159.9477 C.3     1  UNL1        0.0080
@<TRIPOS>BOND
     1     2     3    1
     2     3     4   ar
     3     4     5   ar
     4     5     6   ar
     5     6     1    1
     6     1    20    1
     7    20    21    1
     8    21    22    1
     9    22    23    1
    10    23    24    1
    11    24    25    1
    12    26    25    1
    13    26    27    1
    14    27    28    1
    15    28    30    1
    16    30    31   ar
    17    31    32    1
    18    31    33   ar
    19    33    34   ar
    20    34    35   ar
    21    35    36    1
    22    36    37    1
    23    36    38    1
    24    28    29    1
    25     1     8    1
    26     8     9   am
    27     9    10    2
    28     9    12    1
    29    12    13    1
    30    13    14    1
    31    14    15    1
    32    15    16    1
    33    15    17    1
    34    15    18    1
    35    18    19    1
    36     6     7   ar
    37     7     3   ar
    38    26    22    1
    39    35    30   ar
    40    19    12    1
    41    29    23    1
    42     8    11    1
@<TRIPOS>MOLECULE
*****
 38 42 0 0 0
SMALL
GASTEIGER

@<TRIPOS>ATOM
      1 C         141.2774  141.4120  162.5105 C.3     1  UNL1        0.1014
      2 C         142.7547  137.7350  159.0207 C.3     1  UNL1        0.0381
      3 C         142.5652  138.4913  160.3022 C.ar    1  UNL1        0.0074
      4 C         143.0807  138.0842  161.6507 C.ar    1  UNL1        0.0024
      5 C         142.6611  139.1287  162.6421 C.ar    1  UNL1        0.0039
      6 C         141.8862  140.1814  161.9064 C.ar    1  UNL1        0.0248
      7 S         141.8270  139.7875  160.4601 S.2     1  UNL1       -0.0940
      8 N         141.2084  141.5598  164.0017 N.am    1  UNL1       -0.3017
      9 C         140.1243  140.8687  164.7745 C.2     1  UNL1        0.2222
     10 O         139.1093  140.0298  164.0562 O.2     1  UNL1       -0.2751
     11 H         141.8746  142.1104  164.4732 H       1  UNL1        0.1497
     12 C         140.0553  141.0165  166.2656 C.3     1  UNL1        0.0769
     13 C         139.4321  139.9357  167.0983 C.3     1  UNL1        0.0147
     14 C         139.3630  140.0835  168.5895 C.3     1  UNL1        0.0671
     15 C         139.9172  141.3122  169.2477 C.3     1  UNL1        0.2640
     16 F         140.3013  142.2825  170.3253 F       1  UNL1       -0.2043
     17 F         139.4274  140.5684  170.4547 F       1  UNL1       -0.2043
     18 C         140.5404  142.3930  168.4150 C.3     1  UNL1        0.0671
     19 C         140.6095  142.2452  166.9239 C.3     1  UNL1        0.0147
     20 C         140.7378  142.4946  161.6237 C.3     1  UNL1        0.0419
     21 C         140.5103  143.8713  162.1743 C.3     1  UNL1        0.0741
     22 N         139.5415  144.0779  163.3007 N.3     1  UNL1       -0.2750
     23 C         139.7840  144.8982  164.5329 C.3     1  UNL1        0.0594
     24 C         138.5525  144.8279  165.3864 C.3     1  UNL1        0.0174
     25 C         137.5489  143.9641  164.6817 C.3     1  UNL1        0.0174
     26 C         138.1601  143.5006  163.3926 C.3     1  UNL1        0.0594
     27 C         139.0145  143.1954  162.1859 C.3     1  UNL1        0.0386
     28 C         140.3680  143.8402  162.2330 C.3     1  UNL1        0.0904
     29 C         140.7528  144.6916  163.4065 C.3     1  UNL1        0.0386
     30 N         141.3369  143.6335  161.1066 N.ar    1  UNL1       -0.3039
     31 C         140.9799  143.3609  159.6754 C.ar    1  UNL1        0.1433
     32 C         139.5914  143.2472  159.1194 C.3     1  UNL1        0.0738
     33 N         142.2551  143.2221  158.8980 N.ar    1  UNL1       -0.1337
     34 N         143.4002  143.4088  159.8486 N.ar    1  UNL1       -0.1337
     35 C         142.8327  143.6631  161.2136 C.ar    1  UNL1        0.1425
     36 C         143.6225  143.9046  162.4659 C.3     1  UNL1        0.0588
     37 C         143.8269  145.0947  163.3556 C.3     1  UNL1        0.0080
     38 C         144.4317  142.7943  163.0680 C.3     1  UNL1        0.0080
@<TRIPOS>BOND
     1     2     3    1
     2     3     4   ar
     3     4     5   ar
     4     5     6   ar
     5     6     1    1
     6     1    20    1
     7    20    21    1
     8    21    22    1
     9    22    23    1
    10    23    24    1
    11    24    25    1
    12    26    25    1
    13    26    27    1
    14    27    28    1
    15    28    30    1
    16    30    31   ar
    17    31    32    1
    18    31    33   ar
    19    33    34   ar
    20    34    35   ar
    21    35    36    1
    22    36    37    1
    23    36    38    1
    24    28    29    1
    25     1     8    1
    26     8     9   am
    27     9    10    2
    28     9    12    1
    29    12    13    1
    30    13    14    1
    31    14    15    1
    32    15    16    1
    33    15    17    1
    34    15    18    1
    35    18    19    1
    36     6     7   ar
    37     7     3   ar
    38    26    22    1
    39    35    30   ar
    40    19    12    1
    41    29    23    1
    42     8    11    1
@<TRIPOS>MOLECULE
*****
 38 42 0 0 0
SMALL
GASTEIGER

@<TRIPOS>ATOM
      1 C         140.8258  141.0237  163.5568 C.3     1  UNL1        0.1014
      2 C         139.8432  145.9655  161.9776 C.3     1  UNL1        0.0381
      3 C         140.4571  144.6023  162.0998 C.ar    1  UNL1        0.0074
      4 C         141.6157  144.0823  161.3014 C.ar    1  UNL1        0.0024
      5 C         141.8948  142.6784  161.7500 C.ar    1  UNL1        0.0039
      6 C         140.9088  142.3308  162.8256 C.ar    1  UNL1        0.0248
      7 S         140.0203  143.5199  163.0418 S.2     1  UNL1       -0.0940
      8 N         140.7127  141.0069  165.0525 N.am    1  UNL1       -0.3017
      9 C         141.7774  141.6480  165.8924 C.2     1  UNL1        0.2222
     10 O         142.9552  142.3058  165.2367 O.2     1  UNL1       -0.2751
     11 H         139.9396  140.5752  165.4828 H       1  UNL1        0.1497
     12 C         141.6642  141.6312  167.3880 C.3     1  UNL1        0.0769
     13 C         140.6473  142.4953  168.0729 C.3     1  UNL1        0.0147
     14 C         140.5341  142.4786  169.5686 C.3     1  UNL1        0.0671
     15 C         141.4378  141.5976  170.3792 C.3     1  UNL1        0.2640
     16 F         142.0639  140.9371  171.5717 F       1  UNL1       -0.2043
     17 F         140.6383  142.2324  171.4783 F       1  UNL1       -0.2043
     18 C         142.4547  140.7335  169.6943 C.3     1  UNL1        0.0671
     19 C         142.5679  140.7502  168.1987 C.3     1  UNL1        0.0147
     20 C         140.8560  139.7335  162.7924 C.3     1  UNL1        0.0419
     21 C         141.5656  138.5409  163.3617 C.3     1  UNL1        0.0741
     22 N         142.8357  138.7240  164.1384 N.3     1  UNL1       -0.2750
     23 C         143.1000  138.2228  165.5273 C.3     1  UNL1        0.0594
     24 C         144.4921  138.6295  165.9099 C.3     1  UNL1        0.0174
     25 C         145.0883  139.3821  164.7574 C.3     1  UNL1        0.0174
     26 C         144.0646  139.4405  163.6626 C.3     1  UNL1        0.0594
     27 C         142.8625  139.3432  162.7545 C.3     1  UNL1        0.0386
     28 C         141.7111  138.5999  163.3642 C.3     1  UNL1        0.0904
     29 C         141.8298  138.0397  164.7506 C.3     1  UNL1        0.0386
     30 N         140.4410  138.4167  162.5875 N.ar    1  UNL1       -0.3039
     31 C         139.0741  138.2083  163.1690 C.ar    1  UNL1        0.1433
     32 C         138.7373  138.1463  164.6294 C.3     1  UNL1        0.0738
     33 N         138.1032  138.0726  162.0338 N.ar    1  UNL1       -0.1337
     34 N         138.8698  138.1972  160.7506 N.ar    1  UNL1       -0.1337
     35 C         140.3147  138.4099  161.0928 C.ar    1  UNL1        0.1425
     36 C         141.4365  138.5850  160.1124 C.3     1  UNL1        0.0588
     37 C         142.6177  137.7479  159.7201 C.3     1  UNL1        0.0080
     38 C         141.5134  139.8270  159.2747 C.3     1  UNL1        0.0080
@<TRIPOS>BOND
     1     2     3    1
     2     3     4   ar
     3     4     5   ar
     4     5     6   ar
     5     6     1    1
     6     1    20    1
     7    20    21    1
     8    21    22    1
     9    22    23    1
    10    23    24    1
    11    24    25    1
    12    26    25    1
    13    26    27    1
    14    27    28    1
    15    28    30    1
    16    30    31   ar
    17    31    32    1
    18    31    33   ar
    19    33    34   ar
    20    34    35   ar
    21    35    36    1
    22    36    37    1
    23    36    38    1
    24    28    29    1
    25     1     8    1
    26     8     9   am
    27     9    10    2
    28     9    12    1
    29    12    13    1
    30    13    14    1
    31    14    15    1
    32    15    16    1
    33    15    17    1
    34    15    18    1
    35    18    19    1
    36     6     7   ar
    37     7     3   ar
    38    26    22    1
    39    35    30   ar
    40    19    12    1
    41    29    23    1
    42     8    11    1
@<TRIPOS>MOLECULE
*****
 38 42 0 0 0
SMALL
GASTEIGER

@<TRIPOS>ATOM
      1 C         140.5700  141.3126  163.2617 C.3     1  UNL1        0.1014
      2 C         139.6556  146.2767  161.7116 C.3     1  UNL1        0.0381
      3 C         139.4836  144.9199  162.3278 C.ar    1  UNL1        0.0074
      4 C         138.2739  144.4362  163.0713 C.ar    1  UNL1        0.0024
      5 C         138.5337  143.0260  163.5117 C.ar    1  UNL1        0.0039
      6 C         139.9038  142.6381  163.0403 C.ar    1  UNL1        0.0248
      7 S         140.4909  143.8086  162.3086 S.2     1  UNL1       -0.0940
      8 N         140.8406  140.8329  164.6570 N.am    1  UNL1       -0.3017
      9 C         141.7898  141.5887  165.5390 C.2     1  UNL1        0.2222
     10 O         142.4684  142.8240  165.0257 O.2     1  UNL1       -0.2751
     11 H         140.3952  140.0222  164.9939 H       1  UNL1        0.1497
     12 C         142.0603  141.1091  166.9343 C.3     1  UNL1        0.0769
     13 C         142.3710  139.6629  167.1832 C.3     1  UNL1        0.0147
     14 C         142.6415  139.1832  168.5785 C.3     1  UNL1        0.0671
     15 C         142.6013  140.1498  169.7248 C.3     1  UNL1        0.2640
     16 F         142.6783  140.6778  171.1267 F       1  UNL1       -0.2043
     17 F         142.9388  138.8870  170.4606 F       1  UNL1       -0.2043
     18 C         142.2906  141.5960  169.4759 C.3     1  UNL1        0.0671
     19 C         142.0201  142.0756  168.0806 C.3     1  UNL1        0.0147
     20 C         140.9657  140.4667  162.0879 C.3     1  UNL1        0.0419
     21 C         142.1730  139.5807  162.1749 C.3     1  UNL1        0.0741
     22 N         143.4332  140.0905  162.8088 N.3     1  UNL1       -0.2750
     23 C         144.2229  139.3996  163.8807 C.3     1  UNL1        0.0594
     24 C         145.4029  140.2627  164.2165 C.3     1  UNL1        0.0174
     25 C         145.3424  141.4871  163.3521 C.3     1  UNL1        0.0174
     26 C         144.1251  141.3807  162.4821 C.3     1  UNL1        0.0594
     27 C         142.8580  141.0105  161.7497 C.3     1  UNL1        0.0386
     28 C         142.2802  139.6953  162.1813 C.3     1  UNL1        0.0904
     29 C         142.9627  138.8898  163.2468 C.3     1  UNL1        0.0386
     30 N         141.0198  139.1855  161.5473 N.ar    1  UNL1       -0.3039
     31 C         140.5450  139.4927  160.1580 C.ar    1  UNL1        0.1433
     32 C         141.2472  140.3635  159.1587 C.3     1  UNL1        0.0738
     33 N         139.2449  138.7761  159.9435 N.ar    1  UNL1       -0.1337
     34 N         138.9161  138.0261  161.2002 N.ar    1  UNL1       -0.1337
     35 C         140.0131  138.2791  162.1914 C.ar    1  UNL1        0.1425
     36 C         140.0899  137.7233  163.5826 C.3     1  UNL1        0.0588
     37 C         141.0858  136.8697  164.3101 C.3     1  UNL1        0.0080
     38 C         138.9934  138.0085  164.5657 C.3     1  UNL1        0.0080
@<TRIPOS>BOND
     1     2     3    1
     2     3     4   ar
     3     4     5   ar
     4     5     6   ar
     5     6     1    1
     6     1    20    1
     7    20    21    1
     8    21    22    1
     9    22    23    1
    10    23    24    1
    11    24    25    1
    12    26    25    1
    13    26    27    1
    14    27    28    1
    15    28    30    1
    16    30    31   ar
    17    31    32    1
    18    31    33   ar
    19    33    34   ar
    20    34    35   ar
    21    35    36    1
    22    36    37    1
    23    36    38    1
    24    28    29    1
    25     1     8    1
    26     8     9   am
    27     9    10    2
    28     9    12    1
    29    12    13    1
    30    13    14    1
    31    14    15    1
    32    15    16    1
    33    15    17    1
    34    15    18    1
    35    18    19    1
    36     6     7   ar
    37     7     3   ar
    38    26    22    1
    39    35    30   ar
    40    19    12    1
    41    29    23    1
    42     8    11    1
@<TRIPOS>MOLECULE
*****
 38 42 0 0 0
SMALL
GASTEIGER

@<TRIPOS>ATOM
      1 C         140.1744  141.2252  163.6231 C.3     1  UNL1        0.1014
      2 C         139.6796  146.1744  161.8505 C.3     1  UNL1        0.0381
      3 C         139.3896  144.8616  162.5158 C.ar    1  UNL1        0.0074
      4 C         138.1290  144.5023  163.2452 C.ar    1  UNL1        0.0024
      5 C         138.2696  143.0964  163.7488 C.ar    1  UNL1        0.0039
      6 C         139.6169  142.5868  163.3307 C.ar    1  UNL1        0.0248
      7 S         140.3092  143.6778  162.5686 S.2     1  UNL1       -0.0940
      8 N         140.4631  140.8213  165.0387 N.am    1  UNL1       -0.3017
      9 C         141.5359  141.5253  165.8155 C.2     1  UNL1        0.2222
     10 O         142.3200  142.6332  165.1769 O.2     1  UNL1       -0.2751
     11 H         139.9484  140.0942  165.4578 H       1  UNL1        0.1497
     12 C         141.8246  141.1214  167.2310 C.3     1  UNL1        0.0769
     13 C         141.5602  142.0806  168.3534 C.3     1  UNL1        0.0147
     14 C         141.8488  141.6767  169.7689 C.3     1  UNL1        0.0671
     15 C         142.4019  140.3135  170.0618 C.3     1  UNL1        0.2640
     16 F         142.9264  139.1422  170.8383 F       1  UNL1       -0.2043
     17 F         142.3196  140.8660  171.4540 F       1  UNL1       -0.2043
     18 C         142.6663  139.3542  168.9394 C.3     1  UNL1        0.0671
     19 C         142.3776  139.7581  167.5240 C.3     1  UNL1        0.0147
     20 C         140.4430  140.2677  162.5003 C.3     1  UNL1        0.0419
     21 C         141.4966  139.2108  162.6518 C.3     1  UNL1        0.0741
     22 N         142.8483  139.5713  163.1931 N.3     1  UNL1       -0.2750
     23 C         143.5984  138.8280  164.2584 C.3     1  UNL1        0.0594
     24 C         144.9009  139.5357  164.4878 C.3     1  UNL1        0.0174
     25 C         144.9557  140.7165  163.5644 C.3     1  UNL1        0.0174
     26 C         143.6872  140.7385  162.7642 C.3     1  UNL1        0.0594
     27 C         142.3418  140.5126  162.1176 C.3     1  UNL1        0.0386
     28 C         141.6184  139.3098  162.6467 C.3     1  UNL1        0.0904
     29 C         142.2467  138.4675  163.7171 C.3     1  UNL1        0.0386
     30 N         140.2667  138.9493  162.1054 N.ar    1  UNL1       -0.3039
     31 C         139.1662  138.2682  162.8637 C.ar    1  UNL1        0.1433
     32 C         139.2241  137.8281  164.2965 C.3     1  UNL1        0.0738
     33 N         137.9976  138.1046  161.9376 N.ar    1  UNL1       -0.1337
     34 N         138.3758  138.6845  160.6070 N.ar    1  UNL1       -0.1337
     35 C         139.7782  139.2066  160.7107 C.ar    1  UNL1        0.1425
     36 C         140.5557  139.8695  159.6124 C.3     1  UNL1        0.0588
     37 C         140.5539  141.2474  159.0198 C.3     1  UNL1        0.0080
     38 C         141.5968  139.0964  158.8584 C.3     1  UNL1        0.0080
@<TRIPOS>BOND
     1     2     3    1
     2     3     4   ar
     3     4     5   ar
     4     5     6   ar
     5     6     1    1
     6     1    20    1
     7    20    21    1
     8    21    22    1
     9    22    23    1
    10    23    24    1
    11    24    25    1
    12    26    25    1
    13    26    27    1
    14    27    28    1
    15    28    30    1
    16    30    31   ar
    17    31    32    1
    18    31    33   ar
    19    33    34   ar
    20    34    35   ar
    21    35    36    1
    22    36    37    1
    23    36    38    1
    24    28    29    1
    25     1     8    1
    26     8     9   am
    27     9    10    2
    28     9    12    1
    29    12    13    1
    30    13    14    1
    31    14    15    1
    32    15    16    1
    33    15    17    1
    34    15    18    1
    35    18    19    1
    36     6     7   ar
    37     7     3   ar
    38    26    22    1
    39    35    30   ar
    40    19    12    1
    41    29    23    1
    42     8    11    1
@<TRIPOS>MOLECULE
*****
 38 42 0 0 0
SMALL
GASTEIGER

@<TRIPOS>ATOM
      1 C         141.5567  140.7582  162.9536 C.3     1  UNL1        0.1014
      2 C         137.1157  139.6857  160.3063 C.3     1  UNL1        0.0381
      3 C         138.1816  139.6906  161.3618 C.ar    1  UNL1        0.0074
      4 C         138.1590  138.9080  162.6413 C.ar    1  UNL1        0.0024
      5 C         139.4205  139.2127  163.3933 C.ar    1  UNL1        0.0039
      6 C         140.2229  140.1835  162.5786 C.ar    1  UNL1        0.0248
      7 S         139.4571  140.4789  161.3230 S.2     1  UNL1       -0.0940
      8 N         141.8932  140.9933  164.3964 N.am    1  UNL1       -0.3017
      9 C         141.1660  142.0503  165.1735 C.2     1  UNL1        0.2222
     10 O         140.1023  142.8722  164.5078 O.2     1  UNL1       -0.2751
     11 H         142.5913  140.4538  164.8333 H       1  UNL1        0.1497
     12 C         141.5025  142.2854  166.6162 C.3     1  UNL1        0.0769
     13 C         140.4316  142.7115  167.5762 C.3     1  UNL1        0.0147
     14 C         140.7681  142.9466  169.0191 C.3     1  UNL1        0.0671
     15 C         142.1754  142.7556  169.5016 C.3     1  UNL1        0.2640
     16 F         143.3529  142.7067  170.4297 F       1  UNL1       -0.2043
     17 F         141.5134  143.1647  170.7840 F       1  UNL1       -0.2043
     18 C         143.2463  142.3295  168.5416 C.3     1  UNL1        0.0671
     19 C         142.9098  142.0944  167.0989 C.3     1  UNL1        0.0147
     20 C         142.5540  141.0976  161.8859 C.3     1  UNL1        0.0419
     21 C         143.7513  141.9381  162.2178 C.3     1  UNL1        0.0741
     22 N         143.5777  143.2322  162.9562 N.3     1  UNL1       -0.2750
     23 C         144.3859  143.6906  164.1338 C.3     1  UNL1        0.0594
     24 C         143.8732  145.0368  164.5521 C.3     1  UNL1        0.0174
     25 C         142.7482  145.4104  163.6330 C.3     1  UNL1        0.0174
     26 C         142.5656  144.2951  162.6467 C.3     1  UNL1        0.0594
     27 C         142.6108  143.0437  161.8035 C.3     1  UNL1        0.0386
     28 C         143.6719  142.0731  162.2303 C.3     1  UNL1        0.0904
     29 C         144.5594  142.3966  163.3954 C.3     1  UNL1        0.0386
     30 N         143.8454  140.7789  161.4918 N.ar    1  UNL1       -0.3039
     31 C         144.2283  139.4618  162.0989 C.ar    1  UNL1        0.1433
     32 C         144.5049  139.2075  163.5511 C.3     1  UNL1        0.0738
     33 N         144.2860  138.4437  160.9989 N.ar    1  UNL1       -0.1337
     34 N         143.9388  139.1315  159.7120 N.ar    1  UNL1       -0.1337
     35 C         143.6665  140.5748  160.0166 C.ar    1  UNL1        0.1425
     36 C         143.2826  141.6289  159.0208 C.3     1  UNL1        0.0588
     37 C         142.0027  141.9906  158.3274 C.3     1  UNL1        0.0080
     38 C         144.3108  142.6021  158.5249 C.3     1  UNL1        0.0080
@<TRIPOS>BOND
     1     2     3    1
     2     3     4   ar
     3     4     5   ar
     4     5     6   ar
     5     6     1    1
     6     1    20    1
     7    20    21    1
     8    21    22    1
     9    22    23    1
    10    23    24    1
    11    24    25    1
    12    26    25    1
    13    26    27    1
    14    27    28    1
    15    28    30    1
    16    30    31   ar
    17    31    32    1
    18    31    33   ar
    19    33    34   ar
    20    34    35   ar
    21    35    36    1
    22    36    37    1
    23    36    38    1
    24    28    29    1
    25     1     8    1
    26     8     9   am
    27     9    10    2
    28     9    12    1
    29    12    13    1
    30    13    14    1
    31    14    15    1
    32    15    16    1
    33    15    17    1
    34    15    18    1
    35    18    19    1
    36     6     7   ar
    37     7     3   ar
    38    26    22    1
    39    35    30   ar
    40    19    12    1
    41    29    23    1
    42     8    11    1
@<TRIPOS>MOLECULE
*****
 38 42 0 0 0
SMALL
GASTEIGER

@<TRIPOS>ATOM
      1 C         141.1188  141.4287  163.3136 C.3     1  UNL1        0.1014
      2 C         139.3624  137.9467  159.7538 C.3     1  UNL1        0.0381
      3 C         139.8941  138.5449  161.0226 C.ar    1  UNL1        0.0074
      4 C         140.2241  137.7961  162.2797 C.ar    1  UNL1        0.0024
      5 C         140.7231  138.7852  163.2910 C.ar    1  UNL1        0.0039
      6 C         140.7014  140.1453  162.6589 C.ar    1  UNL1        0.0248
      7 S         140.1890  139.9968  161.2569 S.2     1  UNL1       -0.0940
      8 N         141.2469  141.5019  164.8064 N.am    1  UNL1       -0.3017
      9 C         140.0455  141.2711  165.6745 C.2     1  UNL1        0.2222
     10 O         138.7161  140.9671  165.0498 O.2     1  UNL1       -0.2751
     11 H         142.1194  141.7015  165.2164 H       1  UNL1        0.1497
     12 C         140.1737  141.3444  167.1672 C.3     1  UNL1        0.0769
     13 C         139.9542  140.1162  167.9999 C.3     1  UNL1        0.0147
     14 C         140.0823  140.1894  169.4927 C.3     1  UNL1        0.0671
     15 C         140.4299  141.4908  170.1526 C.3     1  UNL1        0.2640
     16 F         140.7385  142.4857  171.2320 F       1  UNL1       -0.2043
     17 F         140.3176  140.6081  171.3602 F       1  UNL1       -0.2043
     18 C         140.6494  142.7190  169.3199 C.3     1  UNL1        0.0671
     19 C         140.5213  142.6458  167.8272 C.3     1  UNL1        0.0147
     20 C         141.4080  142.6387  162.4758 C.3     1  UNL1        0.0419
     21 C         140.9973  143.9991  162.9561 C.3     1  UNL1        0.0741
     22 N         139.7162  144.1707  163.7172 N.3     1  UNL1       -0.2750
     23 C         139.5688  144.8239  165.0594 C.3     1  UNL1        0.0594
     24 C         138.1191  144.7761  165.4415 C.3     1  UNL1        0.0174
     25 C         137.3705  144.0933  164.3354 C.3     1  UNL1        0.0174
     26 C         138.3576  143.7191  163.2697 C.3     1  UNL1        0.0594
     27 C         139.5533  143.4697  162.3825 C.3     1  UNL1        0.0386
     28 C         140.8422  143.9753  162.9598 C.3     1  UNL1        0.0904
     29 C         140.8499  144.6524  164.2983 C.3     1  UNL1        0.0386
     30 N         142.1233  143.8037  162.1987 N.ar    1  UNL1       -0.3039
     31 C         143.4908  143.6531  162.7965 C.ar    1  UNL1        0.1433
     32 C         143.8171  143.6476  164.2606 C.3     1  UNL1        0.0738
     33 N         144.4744  143.5089  161.6734 N.ar    1  UNL1       -0.1337
     34 N         143.7150  143.5704  160.3813 N.ar    1  UNL1       -0.1337
     35 C         142.2619  143.7526  160.7059 C.ar    1  UNL1        0.1425
     36 C         141.1437  143.8641  159.7123 C.3     1  UNL1        0.0588
     37 C         140.3952  142.8738  158.8705 C.3     1  UNL1        0.0080
     38 C         140.5506  145.2057  159.3981 C.3     1  UNL1        0.0080
@<TRIPOS>BOND
     1     2     3    1
     2     3     4   ar
     3     4     5   ar
     4     5     6   ar
     5     6     1    1
     6     1    20    1
     7    20    21    1
     8    21    22    1
     9    22    23    1
    10    23    24    1
    11    24    25    1
    12    26    25    1
    13    26    27    1
    14    27    28    1
    15    28    30    1
    16    30    31   ar
    17    31    32    1
    18    31    33   ar
    19    33    34   ar
    20    34    35   ar
    21    35    36    1
    22    36    37    1
    23    36    38    1
    24    28    29    1
    25     1     8    1
    26     8     9   am
    27     9    10    2
    28     9    12    1
    29    12    13    1
    30    13    14    1
    31    14    15    1
    32    15    16    1
    33    15    17    1
    34    15    18    1
    35    18    19    1
    36     6     7   ar
    37     7     3   ar
    38    26    22    1
    39    35    30   ar
    40    19    12    1
    41    29    23    1
    42     8    11    1
