@<TRIPOS>MOLECULE
*****
 28 30 0 0 0
SMALL
GASTEIGER

@<TRIPOS>ATOM
      1 C         139.3381  139.7931  164.0256 C.ar    1  UNL1        0.1525
      2 C         140.4421  140.6284  164.6029 C.ar    1  UNL1        0.1337
      3 N         140.6028  140.7348  166.0904 N.ar    1  UNL1       -0.2316
      4 C         139.6595  140.0058  167.0007 C.ar    1  UNL1        0.1420
      5 C         138.5554  139.1705  166.4234 C.ar    1  UNL1        0.1508
      6 N         137.6120  138.4415  167.3338 N.pl3   1  UNL1       -0.3410
      7 N         138.3947  139.0641  164.9359 N.ar    1  UNL1       -0.2128
      8 H         137.7174  138.5113  168.3101 H       1  UNL1        0.1438
      9 H         136.8874  137.8933  166.9549 H       1  UNL1        0.1438
     10 C         139.5063  138.8183  158.3808 C.3     1  UNL1        0.0157
     11 C         138.8560  139.4740  159.5629 C.3     1  UNL1        0.0422
     12 N         137.9595  139.9667  158.4658 N.3     1  UNL1       -0.3231
     13 C         137.8944  140.3007  160.3639 C.3     1  UNL1        0.0357
     14 C         138.0551  140.4071  161.8515 C.3     1  UNL1        0.0935
     15 N         139.1774  139.6867  162.5380 N.pl3   1  UNL1       -0.2919
     16 C         140.1390  138.8599  161.7370 C.3     1  UNL1        0.0935
     17 C         139.9783  138.7536  160.2494 C.3     1  UNL1        0.0357
     18 H         137.2316  140.5609  158.8626 H       1  UNL1        0.1188
     19 H         137.5294  139.1706  157.9949 H       1  UNL1        0.1188
     20 S         139.8201  140.1122  168.4883 S.3     1  UNL1       -0.0644
     21 C         140.5568  141.2763  169.0817 C.ar    1  UNL1        0.0423
     22 C         139.8019  142.4944  169.5252 C.ar    1  UNL1        0.0074
     23 C         140.5385  143.6584  170.1186 C.ar    1  UNL1        0.0014
     24 C         142.0300  143.6045  170.2687 C.ar    1  UNL1        0.0123
     25 C         142.7849  142.3866  169.8253 C.ar    1  UNL1        0.0687
     26 CL        144.2764  142.3327  169.9754 Cl      1  UNL1       -0.0813
     27 C         142.0483  141.2224  169.2318 C.ar    1  UNL1        0.0742
     28 CL        142.8032  140.0044  168.7884 Cl      1  UNL1       -0.0808
@<TRIPOS>BOND
     1    10    11    1
     2    11    12    1
     3    11    13    1
     4    13    14    1
     5    14    15    1
     6    15     1    1
     7     1     2   ar
     8     2     3   ar
     9     3     4   ar
    10     4    20    1
    11    20    21    1
    12    21    22   ar
    13    22    23   ar
    14    23    24   ar
    15    24    25   ar
    16    25    26    1
    17    25    27   ar
    18    27    28    1
    19     4     5   ar
    20     5     6    1
    21     5     7   ar
    22    15    16    1
    23    16    17    1
    24    17    11    1
    25     7     1   ar
    26    27    21   ar
    27    12    18    1
    28    12    19    1
    29     6     8    1
    30     6     9    1
@<TRIPOS>MOLECULE
*****
 28 30 0 0 0
SMALL
GASTEIGER

@<TRIPOS>ATOM
      1 C         141.0137  144.7153  159.3247 C.ar    1  UNL1        0.1525
      2 C         142.2340  143.8451  159.2677 C.ar    1  UNL1        0.1337
      3 N         143.0808  143.6595  160.4919 N.ar    1  UNL1       -0.2316
      4 C         142.7071  144.3443  161.7731 C.ar    1  UNL1        0.1420
      5 C         141.4867  145.2145  161.8300 C.ar    1  UNL1        0.1508
      6 N         141.1129  145.8993  163.1113 N.pl3   1  UNL1       -0.3410
      7 N         140.6400  145.4000  160.6058 N.ar    1  UNL1       -0.2128
      8 H         141.6686  145.7775  163.9148 H       1  UNL1        0.1438
      9 H         140.3119  146.4705  163.1487 H       1  UNL1        0.1438
     10 C         137.6154  144.4728  154.7165 C.3     1  UNL1        0.0157
     11 C         138.4736  145.2718  155.6521 C.3     1  UNL1        0.0422
     12 N         138.0344  146.3551  154.7119 N.3     1  UNL1       -0.3231
     13 C         139.1792  146.4471  156.2611 C.3     1  UNL1        0.0357
     14 C         140.0259  146.2615  157.4853 C.3     1  UNL1        0.0935
     15 N         140.1670  144.9008  158.1005 N.pl3   1  UNL1       -0.2919
     16 C         139.4613  143.7256  157.4914 C.3     1  UNL1        0.0935
     17 C         138.6146  143.9111  156.2672 C.3     1  UNL1        0.0357
     18 H         138.4439  147.2433  155.0016 H       1  UNL1        0.1188
     19 H         137.0172  146.4282  154.7287 H       1  UNL1        0.1188
     20 S         143.5538  144.1587  162.9973 S.3     1  UNL1       -0.0644
     21 C         143.3790  142.9388  163.8523 C.ar    1  UNL1        0.0423
     22 C         142.2578  142.8742  164.8467 C.ar    1  UNL1        0.0074
     23 C         142.0830  141.6543  165.7017 C.ar    1  UNL1        0.0014
     24 C         143.0293  140.4988  165.5624 C.ar    1  UNL1        0.0123
     25 C         144.1504  140.5633  164.5680 C.ar    1  UNL1        0.0687
     26 CL        145.0967  139.4079  164.4286 Cl      1  UNL1       -0.0813
     27 C         144.3253  141.7833  163.7129 C.ar    1  UNL1        0.0742
     28 CL        145.4464  141.8478  162.7185 Cl      1  UNL1       -0.0808
@<TRIPOS>BOND
     1    10    11    1
     2    11    12    1
     3    11    13    1
     4    13    14    1
     5    14    15    1
     6    15     1    1
     7     1     2   ar
     8     2     3   ar
     9     3     4   ar
    10     4    20    1
    11    20    21    1
    12    21    22   ar
    13    22    23   ar
    14    23    24   ar
    15    24    25   ar
    16    25    26    1
    17    25    27   ar
    18    27    28    1
    19     4     5   ar
    20     5     6    1
    21     5     7   ar
    22    15    16    1
    23    16    17    1
    24    17    11    1
    25     7     1   ar
    26    27    21   ar
    27    12    18    1
    28    12    19    1
    29     6     8    1
    30     6     9    1
@<TRIPOS>MOLECULE
*****
 28 30 0 0 0
SMALL
GASTEIGER

@<TRIPOS>ATOM
      1 C         140.0651  138.9735  158.9546 C.ar    1  UNL1        0.1525
      2 C         141.5548  138.8207  159.0408 C.ar    1  UNL1        0.1337
      3 N         142.2813  137.9752  158.0372 N.ar    1  UNL1       -0.2316
      4 C         141.5182  137.2825  156.9474 C.ar    1  UNL1        0.1420
      5 C         140.0285  137.4353  156.8612 C.ar    1  UNL1        0.1508
      6 N         139.2653  136.7426  155.7713 N.pl3   1  UNL1       -0.3410
      7 N         139.3020  138.2808  157.8648 N.ar    1  UNL1       -0.2128
      8 H         139.7421  136.1877  155.1126 H       1  UNL1        0.1438
      9 H         138.2875  136.8429  155.7148 H       1  UNL1        0.1438
     10 C         137.7933  142.9390  162.4123 C.3     1  UNL1        0.0157
     11 C         137.8856  141.5100  161.9655 C.3     1  UNL1        0.0422
     12 N         136.8646  141.3765  163.0564 N.3     1  UNL1       -0.3231
     13 C         137.6232  140.0347  161.8975 C.3     1  UNL1        0.0357
     14 C         138.3497  139.1892  160.8939 C.3     1  UNL1        0.0935
     15 N         139.3386  139.8190  159.9583 N.pl3   1  UNL1       -0.2919
     16 C         139.6009  141.2943  160.0262 C.3     1  UNL1        0.0935
     17 C         138.8744  142.1398  161.0299 C.3     1  UNL1        0.0357
     18 H         136.5778  140.4009  163.1361 H       1  UNL1        0.1188
     19 H         136.0526  141.9525  162.8345 H       1  UNL1        0.1188
     20 S         142.2447  136.4370  155.9437 S.3     1  UNL1       -0.0644
     21 C         142.5510  135.0017  156.2537 C.ar    1  UNL1        0.0423
     22 C         143.4619  134.6588  157.3951 C.ar    1  UNL1        0.0074
     23 C         143.7682  133.2235  157.7051 C.ar    1  UNL1        0.0014
     24 C         143.1637  132.1311  156.8737 C.ar    1  UNL1        0.0123
     25 C         142.2529  132.4740  155.7323 C.ar    1  UNL1        0.0687
     26 CL        141.6484  131.3816  154.9008 Cl      1  UNL1       -0.0813
     27 C         141.9465  133.9093  155.4223 C.ar    1  UNL1        0.0742
     28 CL        141.0357  134.2522  154.2809 Cl      1  UNL1       -0.0808
@<TRIPOS>BOND
     1    10    11    1
     2    11    12    1
     3    11    13    1
     4    13    14    1
     5    14    15    1
     6    15     1    1
     7     1     2   ar
     8     2     3   ar
     9     3     4   ar
    10     4    20    1
    11    20    21    1
    12    21    22   ar
    13    22    23   ar
    14    23    24   ar
    15    24    25   ar
    16    25    26    1
    17    25    27   ar
    18    27    28    1
    19     4     5   ar
    20     5     6    1
    21     5     7   ar
    22    15    16    1
    23    16    17    1
    24    17    11    1
    25     7     1   ar
    26    27    21   ar
    27    12    18    1
    28    12    19    1
    29     6     8    1
    30     6     9    1
@<TRIPOS>MOLECULE
*****
 28 30 0 0 0
SMALL
GASTEIGER

@<TRIPOS>ATOM
      1 C         140.2161  142.0297  166.1815 C.ar    1  UNL1        0.1525
      2 C         140.0962  140.6481  165.6098 C.ar    1  UNL1        0.1337
      3 N         139.2116  140.4013  164.4238 N.ar    1  UNL1       -0.2316
      4 C         138.4470  141.5361  163.8094 C.ar    1  UNL1        0.1420
      5 C         138.5669  142.9177  164.3811 C.ar    1  UNL1        0.1508
      6 N         137.8023  144.0526  163.7667 N.pl3   1  UNL1       -0.3410
      7 N         139.4515  143.1645  165.5671 N.ar    1  UNL1       -0.2128
      8 H         137.2217  143.8906  162.9882 H       1  UNL1        0.1438
      9 H         137.8810  144.9594  164.1419 H       1  UNL1        0.1438
     10 C         144.3061  142.6331  170.1501 C.3     1  UNL1        0.0157
     11 C         142.8698  142.7700  169.7395 C.3     1  UNL1        0.0422
     12 N         142.7888  143.2850  171.1461 N.3     1  UNL1       -0.3231
     13 C         141.4055  143.0857  169.8174 C.3     1  UNL1        0.0357
     14 C         140.5210  142.8390  168.6314 C.3     1  UNL1        0.0935
     15 N         141.1007  142.2765  167.3675 N.pl3   1  UNL1       -0.2919
     16 C         142.5650  141.9607  167.2896 C.3     1  UNL1        0.0935
     17 C         143.4495  142.2075  168.4756 C.3     1  UNL1        0.0357
     18 H         141.8264  143.5490  171.3566 H       1  UNL1        0.1188
     19 H         143.3944  144.0998  171.2452 H       1  UNL1        0.1188
     20 S         137.5624  141.2893  162.6234 S.3     1  UNL1       -0.0644
     21 C         138.1516  141.2449  161.2447 C.ar    1  UNL1        0.0423
     22 C         138.3683  142.5172  160.4803 C.ar    1  UNL1        0.0074
     23 C         138.9575  142.4727  159.1016 C.ar    1  UNL1        0.0014
     24 C         139.3299  141.1559  158.4872 C.ar    1  UNL1        0.0123
     25 C         139.1132  139.8836  159.2516 C.ar    1  UNL1        0.0687
     26 CL        139.4856  138.5669  158.6372 Cl      1  UNL1       -0.0813
     27 C         138.5240  139.9281  160.6304 C.ar    1  UNL1        0.0742
     28 CL        138.3073  138.6558  161.3947 Cl      1  UNL1       -0.0808
@<TRIPOS>BOND
     1    10    11    1
     2    11    12    1
     3    11    13    1
     4    13    14    1
     5    14    15    1
     6    15     1    1
     7     1     2   ar
     8     2     3   ar
     9     3     4   ar
    10     4    20    1
    11    20    21    1
    12    21    22   ar
    13    22    23   ar
    14    23    24   ar
    15    24    25   ar
    16    25    26    1
    17    25    27   ar
    18    27    28    1
    19     4     5   ar
    20     5     6    1
    21     5     7   ar
    22    15    16    1
    23    16    17    1
    24    17    11    1
    25     7     1   ar
    26    27    21   ar
    27    12    18    1
    28    12    19    1
    29     6     8    1
    30     6     9    1
@<TRIPOS>MOLECULE
*****
 28 30 0 0 0
SMALL
GASTEIGER

@<TRIPOS>ATOM
      1 C         140.7502  144.3390  160.6828 C.ar    1  UNL1        0.1525
      2 C         141.7706  143.9551  161.7129 C.ar    1  UNL1        0.1337
      3 N         141.3514  143.7255  163.1347 N.ar    1  UNL1       -0.2316
      4 C         139.9117  143.8798  163.5264 C.ar    1  UNL1        0.1420
      5 C         138.8912  144.2637  162.4962 C.ar    1  UNL1        0.1508
      6 N         137.4515  144.4180  162.8878 N.pl3   1  UNL1       -0.3410
      7 N         139.3105  144.4933  161.0744 N.ar    1  UNL1       -0.2128
      8 H         137.1763  144.2673  163.8210 H       1  UNL1        0.1438
      9 H         136.7817  144.6700  162.2117 H       1  UNL1        0.1438
     10 C         141.5869  145.8070  155.2067 C.3     1  UNL1        0.0157
     11 C         142.0079  145.0277  156.4173 C.3     1  UNL1        0.0422
     12 N         143.0713  144.6001  155.4496 N.3     1  UNL1       -0.3231
     13 C         142.7982  144.0999  157.2918 C.3     1  UNL1        0.0357
     14 C         142.3789  143.8704  158.7136 C.3     1  UNL1        0.0935
     15 N         141.1694  144.5685  159.2610 N.pl3   1  UNL1       -0.2919
     16 C         140.3792  145.4963  158.3865 C.3     1  UNL1        0.0935
     17 C         140.7984  145.7259  156.9647 C.3     1  UNL1        0.0357
     18 H         143.7066  143.9475  155.9089 H       1  UNL1        0.1188
     19 H         143.5931  145.4180  155.1346 H       1  UNL1        0.1188
     20 S         139.4924  143.6502  164.9482 S.3     1  UNL1       -0.0644
     21 C         139.2954  142.2525  165.4556 C.ar    1  UNL1        0.0423
     22 C         138.3802  141.3126  164.7283 C.ar    1  UNL1        0.0074
     23 C         138.1831  139.9149  165.2358 C.ar    1  UNL1        0.0014
     24 C         138.9012  139.4571  166.4705 C.ar    1  UNL1        0.0123
     25 C         139.8164  140.3969  167.1979 C.ar    1  UNL1        0.0687
     26 CL        140.5345  139.9391  168.4327 Cl      1  UNL1       -0.0813
     27 C         140.0135  141.7947  166.6904 C.ar    1  UNL1        0.0742
     28 CL        140.9287  142.7346  167.4177 Cl      1  UNL1       -0.0808
@<TRIPOS>BOND
     1    10    11    1
     2    11    12    1
     3    11    13    1
     4    13    14    1
     5    14    15    1
     6    15     1    1
     7     1     2   ar
     8     2     3   ar
     9     3     4   ar
    10     4    20    1
    11    20    21    1
    12    21    22   ar
    13    22    23   ar
    14    23    24   ar
    15    24    25   ar
    16    25    26    1
    17    25    27   ar
    18    27    28    1
    19     4     5   ar
    20     5     6    1
    21     5     7   ar
    22    15    16    1
    23    16    17    1
    24    17    11    1
    25     7     1   ar
    26    27    21   ar
    27    12    18    1
    28    12    19    1
    29     6     8    1
    30     6     9    1
@<TRIPOS>MOLECULE
*****
 28 30 0 0 0
SMALL
GASTEIGER

@<TRIPOS>ATOM
      1 C         142.8527  139.4205  163.8125 C.ar    1  UNL1        0.1525
      2 C         141.9430  140.4196  164.4637 C.ar    1  UNL1        0.1337
      3 N         141.8378  140.4752  165.9590 N.ar    1  UNL1       -0.2316
      4 C         142.6424  139.5318  166.8031 C.ar    1  UNL1        0.1420
      5 C         143.5522  138.5327  166.1518 C.ar    1  UNL1        0.1508
      6 N         144.3568  137.5892  166.9959 N.pl3   1  UNL1       -0.3410
      7 N         143.6573  138.4770  164.6566 N.ar    1  UNL1       -0.2128
      8 H         144.2878  137.6257  167.9773 H       1  UNL1        0.1438
      9 H         144.9539  136.9334  166.5685 H       1  UNL1        0.1438
     10 C         143.3730  140.1667  158.1544 C.3     1  UNL1        0.0157
     11 C         143.1682  139.2535  159.3267 C.3     1  UNL1        0.0422
     12 N         143.1244  138.2551  158.2080 N.3     1  UNL1       -0.3231
     13 C         142.9481  137.9937  160.1105 C.3     1  UNL1        0.0357
     14 C         142.8430  138.0494  161.6057 C.3     1  UNL1        0.0935
     15 N         142.9579  139.3648  162.3172 N.pl3   1  UNL1       -0.2919
     16 C         143.1779  140.6247  161.5335 C.3     1  UNL1        0.0935
     17 C         143.2831  140.5690  160.0382 C.3     1  UNL1        0.0357
     18 H         142.9762  137.3215  158.5912 H       1  UNL1        0.1188
     19 H         144.0075  138.2771  157.6980 H       1  UNL1        0.1188
     20 S         142.5373  139.5874  168.2983 S.3     1  UNL1       -0.0644
     21 C         141.4856  140.4393  168.9451 C.ar    1  UNL1        0.0423
     22 C         140.1635  139.8403  169.3237 C.ar    1  UNL1        0.0074
     23 C         139.1118  140.6921  169.9704 C.ar    1  UNL1        0.0014
     24 C         139.3822  142.1430  170.2385 C.ar    1  UNL1        0.0123
     25 C         140.7042  142.7420  169.8599 C.ar    1  UNL1        0.0687
     26 CL        140.9745  144.1929  170.1280 Cl      1  UNL1       -0.0813
     27 C         141.7559  141.8902  169.2132 C.ar    1  UNL1        0.0742
     28 CL        143.0780  142.4892  168.8346 Cl      1  UNL1       -0.0808
@<TRIPOS>BOND
     1    10    11    1
     2    11    12    1
     3    11    13    1
     4    13    14    1
     5    14    15    1
     6    15     1    1
     7     1     2   ar
     8     2     3   ar
     9     3     4   ar
    10     4    20    1
    11    20    21    1
    12    21    22   ar
    13    22    23   ar
    14    23    24   ar
    15    24    25   ar
    16    25    26    1
    17    25    27   ar
    18    27    28    1
    19     4     5   ar
    20     5     6    1
    21     5     7   ar
    22    15    16    1
    23    16    17    1
    24    17    11    1
    25     7     1   ar
    26    27    21   ar
    27    12    18    1
    28    12    19    1
    29     6     8    1
    30     6     9    1
@<TRIPOS>MOLECULE
*****
 28 30 0 0 0
SMALL
GASTEIGER

@<TRIPOS>ATOM
      1 C         141.4483  142.5516  166.2380 C.ar    1  UNL1        0.1525
      2 C         142.3334  142.7236  165.0393 C.ar    1  UNL1        0.1337
      3 N         141.8789  143.5687  163.8864 N.ar    1  UNL1       -0.2316
      4 C         140.5393  144.2419  163.9322 C.ar    1  UNL1        0.1420
      5 C         139.6542  144.0699  165.1309 C.ar    1  UNL1        0.1508
      6 N         138.3145  144.7432  165.1768 N.pl3   1  UNL1       -0.3410
      7 N         140.1087  143.2248  166.2838 N.ar    1  UNL1       -0.2128
      8 H         138.0161  145.2978  164.4201 H       1  UNL1        0.1438
      9 H         137.7335  144.6303  165.9636 H       1  UNL1        0.1438
     10 C         142.7138  138.6052  170.1960 C.3     1  UNL1        0.0157
     11 C         142.8119  140.0163  169.6967 C.3     1  UNL1        0.0422
     12 N         143.6064  140.1325  170.9637 N.3     1  UNL1       -0.3231
     13 C         143.1859  141.4676  169.6374 C.3     1  UNL1        0.0357
     14 C         142.7314  142.3128  168.4845 C.3     1  UNL1        0.0935
     15 N         141.9029  141.7065  167.3909 N.pl3   1  UNL1       -0.2919
     16 C         141.5289  140.2551  167.4502 C.3     1  UNL1        0.0935
     17 C         141.9834  139.4100  168.6031 C.3     1  UNL1        0.0357
     18 H         143.9402  141.0906  171.0691 H       1  UNL1        0.1188
     19 H         144.4034  139.4971  170.9247 H       1  UNL1        0.1188
     20 S         140.0847  145.0870  162.7793 S.3     1  UNL1       -0.0644
     21 C         140.1738  144.5562  161.3793 C.ar    1  UNL1        0.0423
     22 C         141.2351  145.0662  160.4499 C.ar    1  UNL1        0.0074
     23 C         141.3242  144.5353  159.0498 C.ar    1  UNL1        0.0014
     24 C         140.3520  143.4945  158.5791 C.ar    1  UNL1        0.0123
     25 C         139.2908  142.9845  159.5084 C.ar    1  UNL1        0.0687
     26 CL        138.3187  141.9437  159.0376 Cl      1  UNL1       -0.0813
     27 C         139.2017  143.5154  160.9085 C.ar    1  UNL1        0.0742
     28 CL        138.1404  143.0054  161.8378 Cl      1  UNL1       -0.0808
@<TRIPOS>BOND
     1    10    11    1
     2    11    12    1
     3    11    13    1
     4    13    14    1
     5    14    15    1
     6    15     1    1
     7     1     2   ar
     8     2     3   ar
     9     3     4   ar
    10     4    20    1
    11    20    21    1
    12    21    22   ar
    13    22    23   ar
    14    23    24   ar
    15    24    25   ar
    16    25    26    1
    17    25    27   ar
    18    27    28    1
    19     4     5   ar
    20     5     6    1
    21     5     7   ar
    22    15    16    1
    23    16    17    1
    24    17    11    1
    25     7     1   ar
    26    27    21   ar
    27    12    18    1
    28    12    19    1
    29     6     8    1
    30     6     9    1
@<TRIPOS>MOLECULE
*****
 28 30 0 0 0
SMALL
GASTEIGER

@<TRIPOS>ATOM
      1 C         140.4599  140.2156  166.5238 C.ar    1  UNL1        0.1525
      2 C         141.1152  138.9916  165.9561 C.ar    1  UNL1        0.1337
      3 N         140.5687  138.3570  164.7117 N.ar    1  UNL1       -0.2316
      4 C         139.3668  138.9464  164.0349 C.ar    1  UNL1        0.1420
      5 C         138.7114  140.1704  164.6026 C.ar    1  UNL1        0.1508
      6 N         137.5095  140.7599  163.9259 N.pl3   1  UNL1       -0.3410
      7 N         139.2580  140.8050  165.8471 N.ar    1  UNL1       -0.2128
      8 H         137.1508  140.3434  163.1091 H       1  UNL1        0.1438
      9 H         137.0793  141.5632  164.2985 H       1  UNL1        0.1438
     10 C         143.1046  143.1517  170.6743 C.3     1  UNL1        0.0157
     11 C         142.0995  142.1194  170.2571 C.3     1  UNL1        0.0422
     12 N         141.9316  142.0593  171.7465 N.3     1  UNL1       -0.3231
     13 C         141.0361  141.0662  170.3571 C.3     1  UNL1        0.0357
     14 C         140.4895  140.4317  169.1127 C.3     1  UNL1        0.0935
     15 N         141.0064  140.8502  167.7682 N.pl3   1  UNL1       -0.2919
     16 C         142.0698  141.9033  167.6682 C.3     1  UNL1        0.0935
     17 C         142.6163  142.5379  168.9126 C.3     1  UNL1        0.0357
     18 H         141.2203  141.3669  171.9808 H       1  UNL1        0.1188
     19 H         141.6430  142.9741  172.0933 H       1  UNL1        0.1188
     20 S         138.8203  138.3118  162.7905 S.3     1  UNL1       -0.0644
     21 C         139.4634  138.5872  161.4636 C.ar    1  UNL1        0.0423
     22 C         140.8863  138.1793  161.2208 C.ar    1  UNL1        0.0074
     23 C         141.5294  138.4546  159.8939 C.ar    1  UNL1        0.0014
     24 C         140.7496  139.1378  158.8099 C.ar    1  UNL1        0.0123
     25 C         139.3267  139.5457  159.0527 C.ar    1  UNL1        0.0687
     26 CL        138.5469  140.2289  157.9686 Cl      1  UNL1       -0.0813
     27 C         138.6836  139.2704  160.3796 C.ar    1  UNL1        0.0742
     28 CL        137.2607  139.6782  160.6224 Cl      1  UNL1       -0.0808
@<TRIPOS>BOND
     1    10    11    1
     2    11    12    1
     3    11    13    1
     4    13    14    1
     5    14    15    1
     6    15     1    1
     7     1     2   ar
     8     2     3   ar
     9     3     4   ar
    10     4    20    1
    11    20    21    1
    12    21    22   ar
    13    22    23   ar
    14    23    24   ar
    15    24    25   ar
    16    25    26    1
    17    25    27   ar
    18    27    28    1
    19     4     5   ar
    20     5     6    1
    21     5     7   ar
    22    15    16    1
    23    16    17    1
    24    17    11    1
    25     7     1   ar
    26    27    21   ar
    27    12    18    1
    28    12    19    1
    29     6     8    1
    30     6     9    1
@<TRIPOS>MOLECULE
*****
 28 30 0 0 0
SMALL
GASTEIGER

@<TRIPOS>ATOM
      1 C         140.4715  140.0042  166.5926 C.ar    1  UNL1        0.1525
      2 C         139.2650  140.5427  165.8826 C.ar    1  UNL1        0.1337
      3 N         138.7375  139.8440  164.6646 N.ar    1  UNL1       -0.2316
      4 C         139.4165  138.6067  164.1566 C.ar    1  UNL1        0.1420
      5 C         140.6231  138.0682  164.8667 C.ar    1  UNL1        0.1508
      6 N         141.3022  136.8309  164.3587 N.pl3   1  UNL1       -0.3410
      7 N         141.1506  138.7670  166.0847 N.ar    1  UNL1       -0.2128
      8 H         140.9560  136.3723  163.5593 H       1  UNL1        0.1438
      9 H         142.0941  136.4775  164.8248 H       1  UNL1        0.1438
     10 C         143.0205  143.1847  170.6211 C.3     1  UNL1        0.0157
     11 C         142.0540  142.1005  170.2466 C.3     1  UNL1        0.0422
     12 N         141.8957  142.0867  171.7382 N.3     1  UNL1       -0.3231
     13 C         141.0325  141.0115  170.3901 C.3     1  UNL1        0.0357
     14 C         140.5050  140.3127  169.1721 C.3     1  UNL1        0.0935
     15 N         140.9990  140.7030  167.8106 N.pl3   1  UNL1       -0.2919
     16 C         142.0205  141.7920  167.6671 C.3     1  UNL1        0.0935
     17 C         142.5480  142.4907  168.8851 C.3     1  UNL1        0.0357
     18 H         141.2127  141.3762  172.0011 H       1  UNL1        0.1188
     19 H         141.5736  143.0015  172.0543 H       1  UNL1        0.1188
     20 S         138.8890  137.9080  162.9386 S.3     1  UNL1       -0.0644
     21 C         138.8665  138.6179  161.6175 C.ar    1  UNL1        0.0423
     22 C         137.6188  139.3148  161.1617 C.ar    1  UNL1        0.0074
     23 C         137.5962  140.0247  159.8405 C.ar    1  UNL1        0.0014
     24 C         138.8213  140.0378  158.9751 C.ar    1  UNL1        0.0123
     25 C         140.0690  139.3409  159.4309 C.ar    1  UNL1        0.0687
     26 CL        141.2941  139.3540  158.5655 Cl      1  UNL1       -0.0813
     27 C         140.0916  138.6310  160.7521 C.ar    1  UNL1        0.0742
     28 CL        141.3392  137.9341  161.2078 Cl      1  UNL1       -0.0808
@<TRIPOS>BOND
     1    10    11    1
     2    11    12    1
     3    11    13    1
     4    13    14    1
     5    14    15    1
     6    15     1    1
     7     1     2   ar
     8     2     3   ar
     9     3     4   ar
    10     4    20    1
    11    20    21    1
    12    21    22   ar
    13    22    23   ar
    14    23    24   ar
    15    24    25   ar
    16    25    26    1
    17    25    27   ar
    18    27    28    1
    19     4     5   ar
    20     5     6    1
    21     5     7   ar
    22    15    16    1
    23    16    17    1
    24    17    11    1
    25     7     1   ar
    26    27    21   ar
    27    12    18    1
    28    12    19    1
    29     6     8    1
    30     6     9    1
