@<TRIPOS>MOLECULE
*****
 45 51 0 0 0
SMALL
GASTEIGER

@<TRIPOS>ATOM
      1 C         140.8677  141.1490  161.0769 C.3     1  UNL1        0.0235
      2 C         140.2340  140.0095  160.3352 C.3     1  UNL1        0.0257
      3 C         140.9761  139.3359  159.2192 C.3     1  UNL1        0.0940
      4 N         142.3519  139.8017  158.8449 N.am    1  UNL1       -0.2761
      5 C         143.0941  139.1280  157.7289 C.2     1  UNL1        0.2490
      6 O         144.4699  139.5939  157.3545 O.2     1  UNL1       -0.2699
      7 C         142.9856  140.9412  159.5865 C.3     1  UNL1        0.0940
      8 C         142.2435  141.6148  160.7025 C.3     1  UNL1        0.0257
      9 C         141.0450  142.2609  162.0681 C.ar    1  UNL1       -0.0226
     10 C         141.2738  141.9450  163.5165 C.ar    1  UNL1       -0.0043
     11 C         141.4511  143.0569  164.5077 C.ar    1  UNL1       -0.0003
     12 C         141.3996  144.4846  164.0504 C.ar    1  UNL1       -0.0000
     13 C         141.1707  144.8004  162.6019 C.ar    1  UNL1       -0.0003
     14 C         140.9934  143.6885  161.6108 C.ar    1  UNL1       -0.0043
     15 C         142.4603  137.9886  156.9873 C.ar    1  UNL1        0.0537
     16 C         141.2975  138.2421  156.0743 C.ar    1  UNL1        0.0045
     17 C         140.6639  137.1026  155.3327 C.ar    1  UNL1        0.0003
     18 C         141.1930  135.7095  155.5042 C.ar    1  UNL1        0.0045
     19 C         142.3558  135.4559  156.4172 C.ar    1  UNL1        0.0533
     20 C         142.9895  136.5955  157.1588 C.ar    1  UNL1        0.0090
     21 C         142.8848  134.0629  156.5886 C.2     1  UNL1        0.2427
     22 N         144.3108  133.8477  157.0014 N.am    1  UNL1       -0.3253
     23 O         141.9879  132.8850  156.3474 O.2     1  UNL1       -0.2704
     24 H         144.8995  134.6207  157.1597 H       1  UNL1        0.1453
     25 H         144.6580  132.9333  157.1139 H       1  UNL1        0.1453
     26 C         139.5535  141.0693  161.7955 C.3     1  UNL1        0.0215
     27 C         138.2862  141.4426  161.0849 C.3     1  UNL1        0.0723
     28 C         138.2541  141.3817  160.9439 C.3     1  UNL1        0.0893
     29 C         138.7499  142.6719  160.3611 C.3     1  UNL1        0.0386
     30 C         138.7542  142.8706  158.8743 C.3     1  UNL1        0.0594
     31 C         138.5823  142.6347  157.4030 C.3     1  UNL1        0.0174
     32 C         138.0123  141.2597  157.2175 C.3     1  UNL1        0.0174
     33 C         137.8320  140.6457  158.5742 C.3     1  UNL1        0.0594
     34 C         137.7627  140.2903  160.0399 C.3     1  UNL1        0.0386
     35 N         138.2906  141.6414  159.5982 N.3     1  UNL1       -0.2751
     36 C         137.7080  143.5761  162.8364 C.3     1  UNL1        0.0718
     37 C         137.9828  142.2402  163.4607 C.ar    1  UNL1        0.1207
     38 N         138.0797  141.6027  164.8150 N.ar    1  UNL1       -0.2309
     39 C         138.4065  140.1515  164.6220 C.ar    1  UNL1        0.0983
     40 C         138.6219  139.0328  165.5977 C.ar    1  UNL1        0.0206
     41 C         138.9425  137.6547  165.0998 C.ar    1  UNL1        0.0016
     42 C         139.0476  137.3953  163.6262 C.ar    1  UNL1        0.0016
     43 C         138.8322  138.5140  162.6504 C.ar    1  UNL1        0.0188
     44 C         138.5116  139.8921  163.1484 C.ar    1  UNL1        0.0785
     45 N         138.2498  141.1829  162.4307 N.ar    1  UNL1       -0.3167
@<TRIPOS>BOND
     1    36    37    1
     2    37    38   ar
     3    38    39   ar
     4    39    40   ar
     5    40    41   ar
     6    41    42   ar
     7    42    43   ar
     8    43    44   ar
     9    44    45   ar
    10    45    28    1
    11    28    29    1
    12    29    30    1
    13    30    31    1
    14    31    32    1
    15    32    33    1
    16    33    34    1
    17    33    35    1
    18    35    27    1
    19    27    26    1
    20    26     1    1
    21     1     9    1
    22     9    10   ar
    23    10    11   ar
    24    11    12   ar
    25    12    13   ar
    26    13    14   ar
    27     1     2    1
    28     2     3    1
    29     3     4    1
    30     4     5   am
    31     5     6    2
    32     5    15    1
    33    15    16   ar
    34    16    17   ar
    35    17    18   ar
    36    18    19   ar
    37    19    21    1
    38    21    22   am
    39    21    23    2
    40    19    20   ar
    41     4     7    1
    42     7     8    1
    43    45    37   ar
    44    34    28    1
    45     8     1    1
    46    44    39   ar
    47    35    30    1
    48    14     9   ar
    49    20    15   ar
    50    22    24    1
    51    22    25    1
@<TRIPOS>MOLECULE
*****
 45 51 0 0 0
SMALL
GASTEIGER

@<TRIPOS>ATOM
      1 C         141.1885  140.2341  163.1850 C.3     1  UNL1        0.0235
      2 C         140.7164  140.7344  164.5180 C.3     1  UNL1        0.0257
      3 C         141.4573  140.3565  165.7663 C.3     1  UNL1        0.0940
      4 N         142.6703  139.4782  165.6816 N.am    1  UNL1       -0.2761
      5 C         143.4112  139.1002  166.9300 C.2     1  UNL1        0.2490
      6 O         144.6243  138.2219  166.8453 O.2     1  UNL1       -0.2699
      7 C         143.1425  138.9779  164.3487 C.3     1  UNL1        0.0940
      8 C         142.4016  139.3558  163.1004 C.3     1  UNL1        0.0257
      9 C         141.2464  140.0120  161.7026 C.ar    1  UNL1       -0.0226
     10 C         141.7218  141.1098  160.7978 C.ar    1  UNL1       -0.0043
     11 C         141.7797  140.8876  159.3154 C.ar    1  UNL1       -0.0003
     12 C         141.3622  139.5677  158.7380 C.ar    1  UNL1       -0.0000
     13 C         140.8868  138.4698  159.6430 C.ar    1  UNL1       -0.0003
     14 C         140.8289  138.6921  161.1253 C.ar    1  UNL1       -0.0043
     15 C         142.9390  139.6006  168.2629 C.ar    1  UNL1        0.0537
     16 C         142.3268  138.6487  169.2473 C.ar    1  UNL1        0.0045
     17 C         141.8546  139.1492  170.5802 C.ar    1  UNL1        0.0003
     18 C         141.9947  140.6015  170.9286 C.ar    1  UNL1        0.0045
     19 C         142.6069  141.5533  169.9442 C.ar    1  UNL1        0.0533
     20 C         143.0791  141.0528  168.6113 C.ar    1  UNL1        0.0090
     21 C         142.7469  143.0054  170.2926 C.2     1  UNL1        0.2427
     22 N         144.0906  143.5628  170.6583 N.am    1  UNL1       -0.3253
     23 O         141.5432  143.9004  170.2753 O.2     1  UNL1       -0.2704
     24 H         144.8807  142.9755  170.6697 H       1  UNL1        0.1453
     25 H         144.1825  144.5160  170.8870 H       1  UNL1        0.1453
     26 C         139.9957  141.0352  162.7549 C.3     1  UNL1        0.0215
     27 C         138.6182  140.6129  163.1726 C.3     1  UNL1        0.0723
     28 C         138.5829  140.5791  163.3218 C.3     1  UNL1        0.0893
     29 C         138.7999  139.1386  162.9639 C.3     1  UNL1        0.0386
     30 C         138.6256  138.0727  164.0048 C.3     1  UNL1        0.0594
     31 C         138.3513  137.3828  165.3082 C.3     1  UNL1        0.0174
     32 C         138.0001  138.4307  166.3224 C.3     1  UNL1        0.0174
     33 C         138.0573  139.7682  165.6459 C.3     1  UNL1        0.0594
     34 C         138.1916  140.9535  164.7205 C.3     1  UNL1        0.0386
     35 N         138.4439  139.5470  164.2135 N.3     1  UNL1       -0.2751
     36 C         137.6893  140.2346  160.5328 C.3     1  UNL1        0.0718
     37 C         138.3334  141.5528  160.8450 C.ar    1  UNL1        0.1207
     38 N         138.7002  142.8410  160.1698 N.ar    1  UNL1       -0.2309
     39 C         139.3508  143.7294  161.1884 C.ar    1  UNL1        0.0983
     40 C         139.9157  145.1159  161.0965 C.ar    1  UNL1        0.0206
     41 C         140.5157  145.7632  162.3093 C.ar    1  UNL1        0.0016
     42 C         140.5510  145.0240  163.6140 C.ar    1  UNL1        0.0016
     43 C         139.9861  143.6375  163.7059 C.ar    1  UNL1        0.0188
     44 C         139.3860  142.9902  162.4932 C.ar    1  UNL1        0.0785
     45 N         138.7572  141.6450  162.2809 N.ar    1  UNL1       -0.3167
@<TRIPOS>BOND
     1    36    37    1
     2    37    38   ar
     3    38    39   ar
     4    39    40   ar
     5    40    41   ar
     6    41    42   ar
     7    42    43   ar
     8    43    44   ar
     9    44    45   ar
    10    45    28    1
    11    28    29    1
    12    29    30    1
    13    30    31    1
    14    31    32    1
    15    32    33    1
    16    33    34    1
    17    33    35    1
    18    35    27    1
    19    27    26    1
    20    26     1    1
    21     1     9    1
    22     9    10   ar
    23    10    11   ar
    24    11    12   ar
    25    12    13   ar
    26    13    14   ar
    27     1     2    1
    28     2     3    1
    29     3     4    1
    30     4     5   am
    31     5     6    2
    32     5    15    1
    33    15    16   ar
    34    16    17   ar
    35    17    18   ar
    36    18    19   ar
    37    19    21    1
    38    21    22   am
    39    21    23    2
    40    19    20   ar
    41     4     7    1
    42     7     8    1
    43    45    37   ar
    44    34    28    1
    45     8     1    1
    46    44    39   ar
    47    35    30    1
    48    14     9   ar
    49    20    15   ar
    50    22    24    1
    51    22    25    1
@<TRIPOS>MOLECULE
*****
 45 51 0 0 0
SMALL
GASTEIGER

@<TRIPOS>ATOM
      1 C         140.1513  141.2454  163.3372 C.3     1  UNL1        0.0235
      2 C         140.8013  141.8879  164.5266 C.3     1  UNL1        0.0257
      3 C         140.5304  141.3615  165.9049 C.3     1  UNL1        0.0940
      4 N         139.6096  140.1925  166.0936 N.am    1  UNL1       -0.2761
      5 C         139.3387  139.6661  167.4719 C.2     1  UNL1        0.2490
      6 O         138.4179  138.4971  167.6606 O.2     1  UNL1       -0.2699
      7 C         138.9597  139.5500  164.9042 C.3     1  UNL1        0.0940
      8 C         139.2305  140.0764  163.5260 C.3     1  UNL1        0.0257
      9 C         139.7759  140.9764  161.9100 C.ar    1  UNL1       -0.0226
     10 C         140.8076  140.4713  160.9455 C.ar    1  UNL1       -0.0043
     11 C         140.4321  140.2023  159.5183 C.ar    1  UNL1       -0.0003
     12 C         139.0249  140.4384  159.0558 C.ar    1  UNL1       -0.0000
     13 C         137.9931  140.9435  160.0204 C.ar    1  UNL1       -0.0003
     14 C         138.3687  141.2125  161.4475 C.ar    1  UNL1       -0.0043
     15 C         139.9887  140.3086  168.6613 C.ar    1  UNL1        0.0537
     16 C         141.1230  139.6192  169.3597 C.ar    1  UNL1        0.0045
     17 C         141.7729  140.2618  170.5491 C.ar    1  UNL1        0.0003
     18 C         141.2885  141.5939  171.0400 C.ar    1  UNL1        0.0045
     19 C         140.1541  142.2833  170.3416 C.ar    1  UNL1        0.0533
     20 C         139.5042  141.6407  169.1522 C.ar    1  UNL1        0.0090
     21 C         139.6697  143.6153  170.8325 C.2     1  UNL1        0.2427
     22 N         138.5791  143.6846  171.8600 N.am    1  UNL1       -0.3253
     23 O         140.2759  144.8781  170.2959 O.2     1  UNL1       -0.2704
     24 H         138.1812  142.8558  172.2122 H       1  UNL1        0.1453
     25 H         138.2612  144.5588  172.1822 H       1  UNL1        0.1453
     26 C         140.9417  142.3209  162.6528 C.3     1  UNL1        0.0215
     27 C         140.5458  143.7591  162.8117 C.3     1  UNL1        0.0723
     28 C         140.4997  143.8178  162.9498 C.3     1  UNL1        0.0893
     29 C         139.0912  143.5994  162.4822 C.3     1  UNL1        0.0386
     30 C         137.9403  143.9667  163.3713 C.3     1  UNL1        0.0594
     31 C         137.1430  144.4595  164.5424 C.3     1  UNL1        0.0174
     32 C         138.1049  144.9237  165.5957 C.3     1  UNL1        0.0174
     33 C         139.4967  144.7178  165.0755 C.3     1  UNL1        0.0594
     34 C         140.7572  144.4034  164.3064 C.3     1  UNL1        0.0386
     35 N         139.3950  144.1263  163.7008 N.3     1  UNL1       -0.2751
     36 C         140.3849  144.0824  160.0151 C.3     1  UNL1        0.0718
     37 C         141.6766  143.5535  160.5644 C.ar    1  UNL1        0.1207
     38 N         143.0196  143.0823  160.0907 N.ar    1  UNL1       -0.2309
     39 C         143.8236  142.6881  161.2941 C.ar    1  UNL1        0.0983
     40 C         145.2167  142.1514  161.4386 C.ar    1  UNL1        0.0206
     41 C         145.7638  141.8422  162.8006 C.ar    1  UNL1        0.0016
     42 C         144.9177  142.0697  164.0181 C.ar    1  UNL1        0.0016
     43 C         143.5245  142.6064  163.8736 C.ar    1  UNL1        0.0188
     44 C         142.9774  142.9156  162.5116 C.ar    1  UNL1        0.0785
     45 N         141.6506  143.4504  162.0606 N.ar    1  UNL1       -0.3167
@<TRIPOS>BOND
     1    36    37    1
     2    37    38   ar
     3    38    39   ar
     4    39    40   ar
     5    40    41   ar
     6    41    42   ar
     7    42    43   ar
     8    43    44   ar
     9    44    45   ar
    10    45    28    1
    11    28    29    1
    12    29    30    1
    13    30    31    1
    14    31    32    1
    15    32    33    1
    16    33    34    1
    17    33    35    1
    18    35    27    1
    19    27    26    1
    20    26     1    1
    21     1     9    1
    22     9    10   ar
    23    10    11   ar
    24    11    12   ar
    25    12    13   ar
    26    13    14   ar
    27     1     2    1
    28     2     3    1
    29     3     4    1
    30     4     5   am
    31     5     6    2
    32     5    15    1
    33    15    16   ar
    34    16    17   ar
    35    17    18   ar
    36    18    19   ar
    37    19    21    1
    38    21    22   am
    39    21    23    2
    40    19    20   ar
    41     4     7    1
    42     7     8    1
    43    45    37   ar
    44    34    28    1
    45     8     1    1
    46    44    39   ar
    47    35    30    1
    48    14     9   ar
    49    20    15   ar
    50    22    24    1
    51    22    25    1
@<TRIPOS>MOLECULE
*****
 45 51 0 0 0
SMALL
GASTEIGER

@<TRIPOS>ATOM
      1 C         140.2121  141.2559  163.1953 C.3     1  UNL1        0.0235
      2 C         140.7214  141.8051  164.4949 C.3     1  UNL1        0.0257
      3 C         140.3118  141.1687  165.7900 C.3     1  UNL1        0.0940
      4 N         139.3928  139.9832  165.7855 N.am    1  UNL1       -0.2761
      5 C         138.9831  139.3469  167.0806 C.2     1  UNL1        0.2490
      6 O         138.0641  138.1614  167.0761 O.2     1  UNL1       -0.2699
      7 C         138.8835  139.4340  164.4859 C.3     1  UNL1        0.0940
      8 C         139.2931  140.0703  163.1909 C.3     1  UNL1        0.0257
      9 C         139.9958  141.0995  161.7192 C.ar    1  UNL1       -0.0226
     10 C         138.6516  141.3947  161.1227 C.ar    1  UNL1       -0.0043
     11 C         138.4353  141.2384  159.6466 C.ar    1  UNL1       -0.0003
     12 C         139.5634  140.7867  158.7671 C.ar    1  UNL1       -0.0000
     13 C         140.9077  140.4915  159.3636 C.ar    1  UNL1       -0.0003
     14 C         141.1238  140.6479  160.8397 C.ar    1  UNL1       -0.0043
     15 C         139.4925  139.8961  168.3802 C.ar    1  UNL1        0.0537
     16 C         138.5255  140.3584  169.4296 C.ar    1  UNL1        0.0045
     17 C         139.0349  140.9076  170.7291 C.ar    1  UNL1        0.0003
     18 C         140.5114  140.9946  170.9793 C.ar    1  UNL1        0.0045
     19 C         141.4784  140.5323  169.9299 C.ar    1  UNL1        0.0533
     20 C         140.9689  139.9831  168.6304 C.ar    1  UNL1        0.0090
     21 C         142.9547  140.6193  170.1801 C.2     1  UNL1        0.2427
     22 N         143.6276  139.6063  171.0581 N.am    1  UNL1       -0.3253
     23 O         143.7584  141.7194  169.5522 O.2     1  UNL1       -0.2704
     24 H         143.1003  138.8843  171.4702 H       1  UNL1        0.1453
     25 H         144.5967  139.6634  171.2223 H       1  UNL1        0.1453
     26 C         141.0560  142.3870  162.6872 C.3     1  UNL1        0.0215
     27 C         140.6106  143.8050  162.8901 C.3     1  UNL1        0.0723
     28 C         140.5533  143.8541  163.0277 C.3     1  UNL1        0.0893
     29 C         139.1877  143.6450  162.4433 C.3     1  UNL1        0.0386
     30 C         137.9674  143.9376  163.2651 C.3     1  UNL1        0.0594
     31 C         137.0763  144.3427  164.4017 C.3     1  UNL1        0.0174
     32 C         137.9486  144.7531  165.5509 C.3     1  UNL1        0.0174
     33 C         139.3787  144.6016  165.1246 C.3     1  UNL1        0.0594
     34 C         140.6985  144.3558  164.4338 C.3     1  UNL1        0.0386
     35 N         139.3904  144.0976  163.7118 N.3     1  UNL1       -0.2751
     36 C         140.6895  144.4113  160.1352 C.3     1  UNL1        0.0718
     37 C         141.9271  143.8126  160.7352 C.ar    1  UNL1        0.1207
     38 N         143.3030  143.3727  160.3310 N.ar    1  UNL1       -0.2309
     39 C         143.9998  142.8496  161.5520 C.ar    1  UNL1        0.0983
     40 C         145.3729  142.2822  161.7584 C.ar    1  UNL1        0.0206
     41 C         145.8007  141.8315  163.1236 C.ar    1  UNL1        0.0016
     42 C         144.8555  141.9481  164.2824 C.ar    1  UNL1        0.0016
     43 C         143.4824  142.5156  164.0760 C.ar    1  UNL1        0.0188
     44 C         143.0546  142.9663  162.7109 C.ar    1  UNL1        0.0785
     45 N         141.7736  143.5615  162.2060 N.ar    1  UNL1       -0.3167
@<TRIPOS>BOND
     1    36    37    1
     2    37    38   ar
     3    38    39   ar
     4    39    40   ar
     5    40    41   ar
     6    41    42   ar
     7    42    43   ar
     8    43    44   ar
     9    44    45   ar
    10    45    28    1
    11    28    29    1
    12    29    30    1
    13    30    31    1
    14    31    32    1
    15    32    33    1
    16    33    34    1
    17    33    35    1
    18    35    27    1
    19    27    26    1
    20    26     1    1
    21     1     9    1
    22     9    10   ar
    23    10    11   ar
    24    11    12   ar
    25    12    13   ar
    26    13    14   ar
    27     1     2    1
    28     2     3    1
    29     3     4    1
    30     4     5   am
    31     5     6    2
    32     5    15    1
    33    15    16   ar
    34    16    17   ar
    35    17    18   ar
    36    18    19   ar
    37    19    21    1
    38    21    22   am
    39    21    23    2
    40    19    20   ar
    41     4     7    1
    42     7     8    1
    43    45    37   ar
    44    34    28    1
    45     8     1    1
    46    44    39   ar
    47    35    30    1
    48    14     9   ar
    49    20    15   ar
    50    22    24    1
    51    22    25    1
@<TRIPOS>MOLECULE
*****
 45 51 0 0 0
SMALL
GASTEIGER

@<TRIPOS>ATOM
      1 C         140.7527  141.8828  161.8092 C.3     1  UNL1        0.0235
      2 C         141.1176  142.3832  163.1754 C.3     1  UNL1        0.0257
      3 C         141.0634  141.4557  164.3530 C.3     1  UNL1        0.0940
      4 N         140.6443  140.0279  164.1645 N.am    1  UNL1       -0.2761
      5 C         140.5900  139.1004  165.3422 C.2     1  UNL1        0.2490
      6 O         140.1709  137.6725  165.1536 O.2     1  UNL1       -0.2699
      7 C         140.2794  139.5275  162.7983 C.3     1  UNL1        0.0940
      8 C         140.3336  140.4549  161.6207 C.3     1  UNL1        0.0257
      9 C         140.5033  141.8776  160.3300 C.ar    1  UNL1       -0.0226
     10 C         139.2794  142.5425  159.7735 C.ar    1  UNL1       -0.0043
     11 C         139.0300  142.5374  158.2943 C.ar    1  UNL1       -0.0003
     12 C         140.0046  141.8672  157.3718 C.ar    1  UNL1       -0.0000
     13 C         141.2286  141.2022  157.9284 C.ar    1  UNL1       -0.0003
     14 C         141.4779  141.2075  159.4075 C.ar    1  UNL1       -0.0043
     15 C         140.9549  139.6008  166.7083 C.ar    1  UNL1        0.0537
     16 C         142.3972  139.7277  167.1002 C.ar    1  UNL1        0.0045
     17 C         142.7620  140.2282  168.4664 C.ar    1  UNL1        0.0003
     18 C         141.6845  140.6018  169.4407 C.ar    1  UNL1        0.0045
     19 C         140.2421  140.4750  169.0488 C.ar    1  UNL1        0.0533
     20 C         139.8773  139.9745  167.6827 C.ar    1  UNL1        0.0090
     21 C         139.1647  140.8486  170.0231 C.2     1  UNL1        0.2427
     22 N         138.0817  139.8659  170.3570 N.am    1  UNL1       -0.3253
     23 O         139.1701  142.2050  170.6637 O.2     1  UNL1       -0.2704
     24 H         138.0781  138.9756  169.9367 H       1  UNL1        0.1453
     25 H         137.3745  140.1111  170.9965 H       1  UNL1        0.1453
     26 C         141.0852  143.3088  161.4840 C.3     1  UNL1        0.0215
     27 C         142.4980  143.7970  161.6095 C.3     1  UNL1        0.0723
     28 C         142.5791  143.7761  161.7423 C.3     1  UNL1        0.0893
     29 C         143.2073  142.5866  161.0784 C.3     1  UNL1        0.0386
     30 C         144.2221  141.7648  161.8166 C.3     1  UNL1        0.0594
     31 C         145.1441  141.2610  162.8871 C.3     1  UNL1        0.0174
     32 C         145.0046  142.1599  164.0798 C.3     1  UNL1        0.0174
     33 C         143.9964  143.2193  163.7464 C.3     1  UNL1        0.0594
     34 C         142.9657  144.1437  163.1441 C.3     1  UNL1        0.0386
     35 N         143.5128  142.9752  162.3475 N.3     1  UNL1       -0.2751
     36 C         140.3258  145.1089  163.0994 C.3     1  UNL1        0.0718
     37 C         140.3918  145.3073  161.6141 C.ar    1  UNL1        0.1207
     38 N         139.6468  146.0024  160.5133 N.ar    1  UNL1       -0.2309
     39 C         140.3589  145.7228  159.2231 C.ar    1  UNL1        0.0983
     40 C         140.0813  146.1464  157.8112 C.ar    1  UNL1        0.0206
     41 C         140.9887  145.7020  156.7027 C.ar    1  UNL1        0.0016
     42 C         142.1739  144.8340  157.0060 C.ar    1  UNL1        0.0016
     43 C         142.4515  144.4104  158.4179 C.ar    1  UNL1        0.0188
     44 C         141.5440  144.8548  159.5264 C.ar    1  UNL1        0.0785
     45 N         141.5644  144.5980  161.0041 N.ar    1  UNL1       -0.3167
@<TRIPOS>BOND
     1    36    37    1
     2    37    38   ar
     3    38    39   ar
     4    39    40   ar
     5    40    41   ar
     6    41    42   ar
     7    42    43   ar
     8    43    44   ar
     9    44    45   ar
    10    45    28    1
    11    28    29    1
    12    29    30    1
    13    30    31    1
    14    31    32    1
    15    32    33    1
    16    33    34    1
    17    33    35    1
    18    35    27    1
    19    27    26    1
    20    26     1    1
    21     1     9    1
    22     9    10   ar
    23    10    11   ar
    24    11    12   ar
    25    12    13   ar
    26    13    14   ar
    27     1     2    1
    28     2     3    1
    29     3     4    1
    30     4     5   am
    31     5     6    2
    32     5    15    1
    33    15    16   ar
    34    16    17   ar
    35    17    18   ar
    36    18    19   ar
    37    19    21    1
    38    21    22   am
    39    21    23    2
    40    19    20   ar
    41     4     7    1
    42     7     8    1
    43    45    37   ar
    44    34    28    1
    45     8     1    1
    46    44    39   ar
    47    35    30    1
    48    14     9   ar
    49    20    15   ar
    50    22    24    1
    51    22    25    1
@<TRIPOS>MOLECULE
*****
 45 51 0 0 0
SMALL
GASTEIGER

@<TRIPOS>ATOM
      1 C         140.2671  141.6508  161.4347 C.3     1  UNL1        0.0235
      2 C         140.9589  141.9619  162.7288 C.3     1  UNL1        0.0257
      3 C         140.7004  141.1154  163.9399 C.3     1  UNL1        0.0940
      4 N         139.7501  139.9578  163.8569 N.am    1  UNL1       -0.2761
      5 C         139.4916  139.1113  165.0679 C.2     1  UNL1        0.2490
      6 O         138.5412  137.9538  164.9849 O.2     1  UNL1       -0.2699
      7 C         139.0582  139.6468  162.5628 C.3     1  UNL1        0.0940
      8 C         139.3167  140.4932  161.3518 C.3     1  UNL1        0.0257
      9 C         139.8556  141.7542  159.9959 C.ar    1  UNL1       -0.0226
     10 C         140.7963  141.3146  158.9134 C.ar    1  UNL1       -0.0043
     11 C         140.3849  141.4180  157.4746 C.ar    1  UNL1       -0.0003
     12 C         139.0327  141.9609  157.1185 C.ar    1  UNL1       -0.0000
     13 C         138.0920  142.4005  158.2010 C.ar    1  UNL1       -0.0003
     14 C         138.5035  142.2971  159.6398 C.ar    1  UNL1       -0.0043
     15 C         140.1834  139.4225  166.3620 C.ar    1  UNL1        0.0537
     16 C         141.6725  139.2775  166.4701 C.ar    1  UNL1        0.0045
     17 C         142.3642  139.5886  167.7642 C.ar    1  UNL1        0.0003
     18 C         141.5670  140.0448  168.9501 C.ar    1  UNL1        0.0045
     19 C         140.0779  140.1898  168.8419 C.ar    1  UNL1        0.0533
     20 C         139.3862  139.8787  167.5478 C.ar    1  UNL1        0.0090
     21 C         139.2808  140.6460  170.0278 C.2     1  UNL1        0.2427
     22 N         138.1120  139.8347  170.5028 N.am    1  UNL1       -0.3253
     23 O         139.6524  141.9136  170.7387 O.2     1  UNL1       -0.2704
     24 H         137.8680  139.0028  170.0363 H       1  UNL1        0.1453
     25 H         137.5887  140.1341  171.2812 H       1  UNL1        0.1453
     26 C         141.0745  142.8442  161.0181 C.3     1  UNL1        0.0215
     27 C         140.7722  144.1941  161.5983 C.3     1  UNL1        0.0723
     28 C         140.7615  144.2190  161.7529 C.3     1  UNL1        0.0893
     29 C         139.2783  144.0579  161.5966 C.3     1  UNL1        0.0386
     30 C         138.3809  144.1763  162.7926 C.3     1  UNL1        0.0594
     31 C         137.8964  144.3674  164.1993 C.3     1  UNL1        0.0174
     32 C         139.0908  144.6218  165.0704 C.3     1  UNL1        0.0174
     33 C         140.3135  144.5878  164.2020 C.3     1  UNL1        0.0594
     34 C         141.3471  144.4984  163.1052 C.3     1  UNL1        0.0386
     35 N         139.8747  144.3124  162.7943 N.3     1  UNL1       -0.2751
     36 C         143.4327  142.9773  161.8901 C.3     1  UNL1        0.0718
     37 C         143.0271  143.4859  160.5385 C.ar    1  UNL1        0.1207
     38 N         143.5595  143.5815  159.1394 N.ar    1  UNL1       -0.2309
     39 C         142.5204  144.2553  158.2931 C.ar    1  UNL1        0.0983
     40 C         142.4921  144.6182  156.8379 C.ar    1  UNL1        0.0206
     41 C         141.2891  145.3018  156.2588 C.ar    1  UNL1        0.0016
     42 C         140.1145  145.6226  157.1348 C.ar    1  UNL1        0.0016
     43 C         140.1428  145.2597  158.5900 C.ar    1  UNL1        0.0188
     44 C         141.3458  144.5761  159.1691 C.ar    1  UNL1        0.0785
     45 N         141.6590  144.1006  160.5568 N.ar    1  UNL1       -0.3167
@<TRIPOS>BOND
     1    36    37    1
     2    37    38   ar
     3    38    39   ar
     4    39    40   ar
     5    40    41   ar
     6    41    42   ar
     7    42    43   ar
     8    43    44   ar
     9    44    45   ar
    10    45    28    1
    11    28    29    1
    12    29    30    1
    13    30    31    1
    14    31    32    1
    15    32    33    1
    16    33    34    1
    17    33    35    1
    18    35    27    1
    19    27    26    1
    20    26     1    1
    21     1     9    1
    22     9    10   ar
    23    10    11   ar
    24    11    12   ar
    25    12    13   ar
    26    13    14   ar
    27     1     2    1
    28     2     3    1
    29     3     4    1
    30     4     5   am
    31     5     6    2
    32     5    15    1
    33    15    16   ar
    34    16    17   ar
    35    17    18   ar
    36    18    19   ar
    37    19    21    1
    38    21    22   am
    39    21    23    2
    40    19    20   ar
    41     4     7    1
    42     7     8    1
    43    45    37   ar
    44    34    28    1
    45     8     1    1
    46    44    39   ar
    47    35    30    1
    48    14     9   ar
    49    20    15   ar
    50    22    24    1
    51    22    25    1
@<TRIPOS>MOLECULE
*****
 45 51 0 0 0
SMALL
GASTEIGER

@<TRIPOS>ATOM
      1 C         140.3186  140.8987  162.6665 C.3     1  UNL1        0.0235
      2 C         141.0986  141.5602  163.7638 C.3     1  UNL1        0.0257
      3 C         140.8735  141.1583  165.1913 C.3     1  UNL1        0.0940
      4 N         139.8685  140.0949  165.5216 N.am    1  UNL1       -0.2761
      5 C         139.6435  139.6930  166.9491 C.2     1  UNL1        0.2490
      6 O         138.6385  138.6296  167.2794 O.2     1  UNL1       -0.2699
      7 C         139.0885  139.4334  164.4243 C.3     1  UNL1        0.0940
      8 C         139.3135  139.8352  162.9968 C.3     1  UNL1        0.0257
      9 C         139.8285  140.5663  161.2883 C.ar    1  UNL1       -0.0226
     10 C         140.2377  139.2786  160.6370 C.ar    1  UNL1       -0.0043
     11 C         139.7476  138.9463  159.2587 C.ar    1  UNL1       -0.0003
     12 C         138.8482  139.9018  158.5319 C.ar    1  UNL1       -0.0000
     13 C         138.4390  141.1895  159.1833 C.ar    1  UNL1       -0.0003
     14 C         138.9291  141.5217  160.5615 C.ar    1  UNL1       -0.0043
     15 C         140.4235  140.3546  168.0463 C.ar    1  UNL1        0.0537
     16 C         141.7632  139.8116  168.4468 C.ar    1  UNL1        0.0045
     17 C         142.5431  140.4732  169.5440 C.ar    1  UNL1        0.0003
     18 C         141.9834  141.6779  170.2408 C.ar    1  UNL1        0.0045
     19 C         140.6438  142.2210  169.8403 C.ar    1  UNL1        0.0533
     20 C         139.8638  141.5593  168.7431 C.ar    1  UNL1        0.0090
     21 C         140.0841  143.4256  170.5371 C.2     1  UNL1        0.2427
     22 N         138.8991  143.2835  171.4456 N.am    1  UNL1       -0.3253
     23 O         140.7095  144.7725  170.3253 O.2     1  UNL1       -0.2704
     24 H         138.4886  142.3995  171.5847 H       1  UNL1        0.1453
     25 H         138.5318  144.0742  171.9029 H       1  UNL1        0.1453
     26 C         141.1534  141.8466  161.8576 C.3     1  UNL1        0.0215
     27 C         142.6327  141.6288  161.7381 C.3     1  UNL1        0.0723
     28 C         142.7218  141.6098  161.8659 C.3     1  UNL1        0.0893
     29 C         142.6390  140.1345  161.6073 C.3     1  UNL1        0.0386
     30 C         143.3320  139.1720  162.5257 C.3     1  UNL1        0.0594
     31 C         144.1443  138.6113  163.6553 C.3     1  UNL1        0.0174
     32 C         144.6399  139.7591  164.4841 C.3     1  UNL1        0.0174
     33 C         144.1340  141.0292  163.8668 C.3     1  UNL1        0.0594
     34 C         143.4975  142.1224  163.0429 C.3     1  UNL1        0.0386
     35 N         143.3256  140.6663  162.6564 N.3     1  UNL1       -0.2751
     36 C         142.6744  141.2555  158.9388 C.3     1  UNL1        0.0718
     37 C         141.9562  142.4679  159.4529 C.ar    1  UNL1        0.1207
     38 N         141.1692  143.6392  158.9442 N.ar    1  UNL1       -0.2309
     39 C         140.7554  144.4674  160.1244 C.ar    1  UNL1        0.0983
     40 C         139.9635  145.7367  160.2316 C.ar    1  UNL1        0.0206
     41 C         139.7028  146.3467  161.5770 C.ar    1  UNL1        0.0016
     42 C         140.2340  145.6872  162.8151 C.ar    1  UNL1        0.0016
     43 C         141.0259  144.4179  162.7079 C.ar    1  UNL1        0.0188
     44 C         141.2866  143.8079  161.3626 C.ar    1  UNL1        0.0785
     45 N         142.0287  142.5722  160.9475 N.ar    1  UNL1       -0.3167
@<TRIPOS>BOND
     1    36    37    1
     2    37    38   ar
     3    38    39   ar
     4    39    40   ar
     5    40    41   ar
     6    41    42   ar
     7    42    43   ar
     8    43    44   ar
     9    44    45   ar
    10    45    28    1
    11    28    29    1
    12    29    30    1
    13    30    31    1
    14    31    32    1
    15    32    33    1
    16    33    34    1
    17    33    35    1
    18    35    27    1
    19    27    26    1
    20    26     1    1
    21     1     9    1
    22     9    10   ar
    23    10    11   ar
    24    11    12   ar
    25    12    13   ar
    26    13    14   ar
    27     1     2    1
    28     2     3    1
    29     3     4    1
    30     4     5   am
    31     5     6    2
    32     5    15    1
    33    15    16   ar
    34    16    17   ar
    35    17    18   ar
    36    18    19   ar
    37    19    21    1
    38    21    22   am
    39    21    23    2
    40    19    20   ar
    41     4     7    1
    42     7     8    1
    43    45    37   ar
    44    34    28    1
    45     8     1    1
    46    44    39   ar
    47    35    30    1
    48    14     9   ar
    49    20    15   ar
    50    22    24    1
    51    22    25    1
@<TRIPOS>MOLECULE
*****
 45 51 0 0 0
SMALL
GASTEIGER

@<TRIPOS>ATOM
      1 C         140.8486  141.1471  161.0695 C.3     1  UNL1        0.0235
      2 C         140.2115  139.9897  160.3593 C.3     1  UNL1        0.0257
      3 C         140.9432  139.2966  159.2483 C.3     1  UNL1        0.0940
      4 N         142.3121  139.7610  158.8476 N.am    1  UNL1       -0.2761
      5 C         143.0438  139.0679  157.7367 C.2     1  UNL1        0.2490
      6 O         144.4127  139.5322  157.3359 O.2     1  UNL1       -0.2699
      7 C         142.9492  140.9184  159.5579 C.3     1  UNL1        0.0940
      8 C         142.2175  141.6115  160.6687 C.3     1  UNL1        0.0257
      9 C         141.0326  142.2800  162.0354 C.ar    1  UNL1       -0.0226
     10 C         141.2651  141.9954  163.4897 C.ar    1  UNL1       -0.0043
     11 C         141.4490  143.1282  164.4556 C.ar    1  UNL1       -0.0003
     12 C         141.4005  144.5456  163.9671 C.ar    1  UNL1       -0.0000
     13 C         141.1680  144.8302  162.5128 C.ar    1  UNL1       -0.0003
     14 C         140.9840  143.6973  161.5470 C.ar    1  UNL1       -0.0043
     15 C         142.4067  137.9105  157.0265 C.ar    1  UNL1        0.0537
     16 C         143.0158  136.5432  157.1240 C.ar    1  UNL1        0.0045
     17 C         142.3786  135.3858  156.4137 C.ar    1  UNL1        0.0003
     18 C         141.1321  135.5957  155.6060 C.ar    1  UNL1        0.0045
     19 C         140.5230  136.9630  155.5085 C.ar    1  UNL1        0.0533
     20 C         141.1602  138.1204  156.2188 C.ar    1  UNL1        0.0090
     21 C         139.2766  137.1728  154.7009 C.2     1  UNL1        0.2427
     22 N         139.3646  137.3224  153.2109 N.am    1  UNL1       -0.3253
     23 O         137.9420  137.2332  155.3831 O.2     1  UNL1       -0.2704
     24 H         140.2405  137.2828  152.7631 H       1  UNL1        0.1453
     25 H         138.5466  137.4601  152.6808 H       1  UNL1        0.1453
     26 C         139.5437  141.0762  161.8056 C.3     1  UNL1        0.0215
     27 C         138.2658  141.4268  161.1025 C.3     1  UNL1        0.0723
     28 C         138.2328  141.3650  160.9621 C.3     1  UNL1        0.0893
     29 C         138.7175  142.6548  160.3691 C.3     1  UNL1        0.0386
     30 C         138.7083  142.8466  158.8814 C.3     1  UNL1        0.0594
     31 C         138.5248  142.6031  157.4127 C.3     1  UNL1        0.0174
     32 C         137.9597  141.2246  157.2385 C.3     1  UNL1        0.0174
     33 C         137.7939  140.6161  158.5995 C.3     1  UNL1        0.0594
     34 C         137.7388  140.2672  160.0673 C.3     1  UNL1        0.0386
     35 N         138.2565  141.6186  159.6150 N.3     1  UNL1       -0.2751
     36 C         137.7104  143.5696  162.8495 C.3     1  UNL1        0.0718
     37 C         137.9877  142.2359  163.4773 C.ar    1  UNL1        0.1207
     38 N         138.0958  141.6044  164.8336 N.ar    1  UNL1       -0.2309
     39 C         138.4169  140.1515  164.6443 C.ar    1  UNL1        0.0983
     40 C         138.6387  139.0368  165.6231 C.ar    1  UNL1        0.0206
     41 C         138.9509  137.6555  165.1286 C.ar    1  UNL1        0.0016
     42 C         139.0414  137.3890  163.6552 C.ar    1  UNL1        0.0016
     43 C         138.8196  138.5037  162.6764 C.ar    1  UNL1        0.0188
     44 C         138.5073  139.8850  163.1709 C.ar    1  UNL1        0.0785
     45 N         138.2421  141.1732  162.4497 N.ar    1  UNL1       -0.3167
@<TRIPOS>BOND
     1    36    37    1
     2    37    38   ar
     3    38    39   ar
     4    39    40   ar
     5    40    41   ar
     6    41    42   ar
     7    42    43   ar
     8    43    44   ar
     9    44    45   ar
    10    45    28    1
    11    28    29    1
    12    29    30    1
    13    30    31    1
    14    31    32    1
    15    32    33    1
    16    33    34    1
    17    33    35    1
    18    35    27    1
    19    27    26    1
    20    26     1    1
    21     1     9    1
    22     9    10   ar
    23    10    11   ar
    24    11    12   ar
    25    12    13   ar
    26    13    14   ar
    27     1     2    1
    28     2     3    1
    29     3     4    1
    30     4     5   am
    31     5     6    2
    32     5    15    1
    33    15    16   ar
    34    16    17   ar
    35    17    18   ar
    36    18    19   ar
    37    19    21    1
    38    21    22   am
    39    21    23    2
    40    19    20   ar
    41     4     7    1
    42     7     8    1
    43    45    37   ar
    44    34    28    1
    45     8     1    1
    46    44    39   ar
    47    35    30    1
    48    14     9   ar
    49    20    15   ar
    50    22    24    1
    51    22    25    1
@<TRIPOS>MOLECULE
*****
 45 51 0 0 0
SMALL
GASTEIGER

@<TRIPOS>ATOM
      1 C         140.2569  140.5311  163.1206 C.3     1  UNL1        0.0235
      2 C         141.0274  141.1724  164.2365 C.3     1  UNL1        0.0257
      3 C         140.6889  140.8524  165.6624 C.3     1  UNL1        0.0940
      4 N         139.5798  139.8912  165.9724 N.am    1  UNL1       -0.2761
      5 C         139.2413  139.5713  167.3982 C.2     1  UNL1        0.2490
      6 O         138.1322  138.6101  167.7082 O.2     1  UNL1       -0.2699
      7 C         138.8093  139.2500  164.8565 C.3     1  UNL1        0.0940
      8 C         139.1478  139.5699  163.4307 C.3     1  UNL1        0.0257
      9 C         139.8186  140.1815  161.7293 C.ar    1  UNL1       -0.0226
     10 C         140.6882  139.3188  160.8636 C.ar    1  UNL1       -0.0043
     11 C         140.2499  138.9691  159.4723 C.ar    1  UNL1       -0.0003
     12 C         138.9420  139.4823  158.9468 C.ar    1  UNL1       -0.0000
     13 C         138.0724  140.3451  159.8125 C.ar    1  UNL1       -0.0003
     14 C         138.5108  140.6946  161.2038 C.ar    1  UNL1       -0.0043
     15 C         140.0119  140.2126  168.5140 C.ar    1  UNL1        0.0537
     16 C         141.2228  139.5304  169.0781 C.ar    1  UNL1        0.0045
     17 C         141.9933  140.1717  170.1939 C.ar    1  UNL1        0.0003
     18 C         141.5529  141.4953  170.7456 C.ar    1  UNL1        0.0045
     19 C         140.3419  142.1775  170.1815 C.ar    1  UNL1        0.0533
     20 C         139.5714  141.5361  169.0657 C.ar    1  UNL1        0.0090
     21 C         139.9016  143.5009  170.7331 C.2     1  UNL1        0.2427
     22 N         138.7278  143.5723  171.6643 N.am    1  UNL1       -0.3253
     23 O         140.6350  144.7532  170.3536 O.2     1  UNL1       -0.2704
     24 H         138.2464  142.7504  171.9134 H       1  UNL1        0.1453
     25 H         138.4387  144.4409  172.0264 H       1  UNL1        0.1453
     26 C         141.2137  141.3709  162.3275 C.3     1  UNL1        0.0215
     27 C         141.1105  142.8668  162.3683 C.3     1  UNL1        0.0723
     28 C         141.0842  142.9456  162.5015 C.3     1  UNL1        0.0893
     29 C         139.6344  142.9547  162.1167 C.3     1  UNL1        0.0386
     30 C         138.6253  143.6128  163.0105 C.3     1  UNL1        0.0594
     31 C         138.0029  144.3528  164.1572 C.3     1  UNL1        0.0174
     32 C         139.0944  144.7224  165.1174 C.3     1  UNL1        0.0174
     33 C         140.3914  144.2107  164.5642 C.3     1  UNL1        0.0594
     34 C         141.5249  143.5947  163.7799 C.3     1  UNL1        0.0386
     35 N         140.1015  143.5249  163.2620 N.3     1  UNL1       -0.2751
     36 C         143.5803  141.7594  163.5301 C.3     1  UNL1        0.0718
     37 C         143.3839  141.6614  162.0462 C.ar    1  UNL1        0.1207
     38 N         144.0771  141.1270  160.8281 N.ar    1  UNL1       -0.2309
     39 C         143.2149  141.4227  159.6369 C.ar    1  UNL1        0.0983
     40 C         143.3878  141.1316  158.1756 C.ar    1  UNL1        0.0206
     41 C         142.3346  141.5577  157.1963 C.ar    1  UNL1        0.0016
     42 C         141.1085  142.2750  157.6781 C.ar    1  UNL1        0.0016
     43 C         140.9356  142.5661  159.1394 C.ar    1  UNL1        0.0188
     44 C         141.9888  142.1400  160.1187 C.ar    1  UNL1        0.0785
     45 N         142.0933  142.2875  161.6078 N.ar    1  UNL1       -0.3167
@<TRIPOS>BOND
     1    36    37    1
     2    37    38   ar
     3    38    39   ar
     4    39    40   ar
     5    40    41   ar
     6    41    42   ar
     7    42    43   ar
     8    43    44   ar
     9    44    45   ar
    10    45    28    1
    11    28    29    1
    12    29    30    1
    13    30    31    1
    14    31    32    1
    15    32    33    1
    16    33    34    1
    17    33    35    1
    18    35    27    1
    19    27    26    1
    20    26     1    1
    21     1     9    1
    22     9    10   ar
    23    10    11   ar
    24    11    12   ar
    25    12    13   ar
    26    13    14   ar
    27     1     2    1
    28     2     3    1
    29     3     4    1
    30     4     5   am
    31     5     6    2
    32     5    15    1
    33    15    16   ar
    34    16    17   ar
    35    17    18   ar
    36    18    19   ar
    37    19    21    1
    38    21    22   am
    39    21    23    2
    40    19    20   ar
    41     4     7    1
    42     7     8    1
    43    45    37   ar
    44    34    28    1
    45     8     1    1
    46    44    39   ar
    47    35    30    1
    48    14     9   ar
    49    20    15   ar
    50    22    24    1
    51    22    25    1
