@<TRIPOS>MOLECULE
*****
 41 43 0 0 0
SMALL
GASTEIGER

@<TRIPOS>ATOM
      1 C         139.4537  139.4909  160.4865 C.ar    1  UNL1        0.0597
      2 C         139.3782  138.6130  161.7004 C.ar    1  UNL1        0.0422
      3 C         138.6926  139.1052  162.9404 C.ar    1  UNL1        0.1485
      4 C         138.0826  140.4753  162.9665 C.ar    1  UNL1        0.0743
      5 C         138.1581  141.3532  161.7526 C.ar    1  UNL1        0.1417
      6 C         138.8437  140.8610  160.5126 C.ar    1  UNL1        0.0416
      7 N         141.6300  139.1079  159.1200 N.am    1  UNL1       -0.2644
      8 C         140.1394  138.9986  159.2464 C.2     1  UNL1        0.2508
      9 O         139.3343  138.3972  158.1328 O.2     1  UNL1       -0.2698
     10 H         142.1584  139.5026  159.8509 H       1  UNL1        0.1566
     11 N         143.4479  137.1806  156.2834 N.ar    1  UNL1       -0.2357
     12 C         143.2933  138.5361  155.6599 C.ar    1  UNL1        0.0988
     13 C         142.5934  139.4231  156.6467 C.ar    1  UNL1        0.0565
     14 C         142.3156  138.6157  157.8799 C.ar    1  UNL1        0.1557
     15 N         142.8437  137.2298  157.6554 N.ar    1  UNL1       -0.1534
     16 C         144.0935  135.9857  155.6467 C.3     1  UNL1        0.2423
     17 P         143.3195  134.7107  155.4877 P.3     1  UNL1        0.3677
     18 O         142.5456  133.4356  155.3288 O.2     1  UNL1       -0.2557
     19 O         142.5986  135.2951  154.3093 O.3     1  UNL1       -0.2928
     20 C         140.3080  136.2967  155.0161 C.3     1  UNL1        0.0352
     21 C         141.0997  135.2714  154.2598 C.3     1  UNL1        0.1515
     22 O         144.0404  134.1263  156.6663 O.3     1  UNL1       -0.2928
     23 C         144.4666  132.6882  156.6471 C.3     1  UNL1        0.1515
     24 C         145.1898  132.1045  157.8244 C.3     1  UNL1        0.0352
     25 O         138.6170  138.2273  164.1544 O.3     1  UNL1       -0.4534
     26 C         138.9893  138.7750  165.5003 C.ar    1  UNL1        0.1454
     27 C         140.3664  139.3226  165.7324 C.ar    1  UNL1        0.0388
     28 C         140.7387  139.8702  167.0783 C.ar    1  UNL1        0.0215
     29 C         139.7339  139.8702  168.1921 C.ar    1  UNL1        0.1059
     30 C         138.3569  139.3226  167.9600 C.ar    1  UNL1        0.0215
     31 C         137.9846  138.7750  166.6141 C.ar    1  UNL1        0.0388
     32 S         140.1062  140.4179  169.5380 S.O2    1  UNL1        0.0105
     33 C         140.4785  140.9655  170.8840 C.3     1  UNL1        0.1816
     34 O         138.8170  139.9014  170.1048 O.2     1  UNL1       -0.1686
     35 O         141.3954  140.9344  168.9713 O.2     1  UNL1       -0.1686
     36 O         137.5481  142.7233  161.7787 O.3     1  UNL1       -0.4765
     37 C         138.1809  143.8106  162.5956 C.3     1  UNL1        0.1954
     38 C         137.7079  144.0687  163.9955 C.3     1  UNL1        0.0500
     39 C         139.2866  144.6398  162.0126 C.3     1  UNL1        0.1855
     40 O         139.5738  144.5793  160.5417 O.3     1  UNL1       -0.3473
     41 C         140.7346  145.3400  159.9722 C.3     1  UNL1        0.1743
@<TRIPOS>BOND
     1    20    21    1
     2    21    19    1
     3    19    17    1
     4    17    18    2
     5    17    16    1
     6    16    11    1
     7    11    12   ar
     8    12    13   ar
     9    13    14   ar
    10    14     7    1
    11     7     8   am
    12     8     9    2
    13     8     1    1
    14     1     2   ar
    15     2     3   ar
    16     3    25    1
    17    25    26    1
    18    26    27   ar
    19    27    28   ar
    20    28    29   ar
    21    29    32    1
    22    32    33    1
    23    32    34    2
    24    32    35    2
    25    29    30   ar
    26    30    31   ar
    27     3     4   ar
    28     4     5   ar
    29     5    36    1
    30    36    37    1
    31    37    38    1
    32    37    39    1
    33    39    40    1
    34    40    41    1
    35     5     6   ar
    36    14    15   ar
    37    17    22    1
    38    22    23    1
    39    23    24    1
    40    15    11   ar
    41     6     1   ar
    42    31    26   ar
    43     7    10    1
@<TRIPOS>MOLECULE
*****
 41 43 0 0 0
SMALL
GASTEIGER

@<TRIPOS>ATOM
      1 C         139.3377  139.9647  160.7287 C.ar    1  UNL1        0.0597
      2 C         139.2530  139.1347  161.9752 C.ar    1  UNL1        0.0422
      3 C         138.6509  139.7126  163.2216 C.ar    1  UNL1        0.1485
      4 C         138.1336  141.1205  163.2215 C.ar    1  UNL1        0.0743
      5 C         138.2183  141.9506  161.9750 C.ar    1  UNL1        0.1417
      6 C         138.8203  141.3727  160.7286 C.ar    1  UNL1        0.0416
      7 N         141.4102  139.0970  159.4243 N.am    1  UNL1       -0.2644
      8 C         139.9397  139.3868  159.4822 C.2     1  UNL1        0.2508
      9 O         139.0711  139.0989  158.2937 O.2     1  UNL1       -0.2698
     10 H         141.9803  139.2860  160.2044 H       1  UNL1        0.1566
     11 N         143.0141  136.9674  156.6032 N.ar    1  UNL1       -0.2357
     12 C         142.8633  138.2923  155.9161 C.ar    1  UNL1        0.0988
     13 C         142.2441  139.2513  156.8894 C.ar    1  UNL1        0.0565
     14 C         142.0123  138.5191  158.1778 C.ar    1  UNL1        0.1557
     15 N         142.4881  137.1076  158.0010 N.ar    1  UNL1       -0.1534
     16 C         143.5897  135.7213  155.9987 C.3     1  UNL1        0.2423
     17 P         142.9066  134.4021  156.2064 P.3     1  UNL1        0.3677
     18 O         142.2234  133.0830  156.4140 O.2     1  UNL1       -0.2557
     19 O         143.9557  134.0162  157.2065 O.3     1  UNL1       -0.2928
     20 C         145.6046  132.2491  158.1598 C.3     1  UNL1        0.0352
     21 C         144.4608  132.6047  157.2568 C.3     1  UNL1        0.1515
     22 O         141.8574  134.7881  155.2061 O.3     1  UNL1       -0.2928
     23 C         142.2559  135.1751  153.8128 C.3     1  UNL1        0.1515
     24 C         141.5886  134.5289  152.6350 C.3     1  UNL1        0.0352
     25 O         138.5662  138.8825  164.4681 O.3     1  UNL1       -0.4534
     26 C         139.4478  139.1973  165.6402 C.ar    1  UNL1        0.1454
     27 C         140.9392  139.1183  165.4995 C.ar    1  UNL1        0.0388
     28 C         141.8208  139.4331  166.6715 C.ar    1  UNL1        0.0215
     29 C         141.2110  139.8270  167.9842 C.ar    1  UNL1        0.1059
     30 C         139.7197  139.9061  168.1249 C.ar    1  UNL1        0.0215
     31 C         138.8381  139.5912  166.9528 C.ar    1  UNL1        0.0388
     32 S         142.0926  140.1419  169.1563 S.O2    1  UNL1        0.0105
     33 C         142.9742  140.4567  170.3283 C.3     1  UNL1        0.1816
     34 O         141.2411  141.3345  169.4764 O.2     1  UNL1       -0.1686
     35 O         142.9442  138.9492  168.8361 O.2     1  UNL1       -0.1686
     36 O         137.7010  143.3586  161.9749 O.3     1  UNL1       -0.4765
     37 C         138.2871  144.3730  162.9116 C.3     1  UNL1        0.1954
     38 C         137.8800  144.3842  164.3553 C.3     1  UNL1        0.0500
     39 C         139.2803  145.3763  162.4046 C.3     1  UNL1        0.1855
     40 O         139.4692  145.5648  160.9286 O.3     1  UNL1       -0.3473
     41 C         140.7257  145.0832  160.2657 C.3     1  UNL1        0.1743
@<TRIPOS>BOND
     1    20    21    1
     2    21    19    1
     3    19    17    1
     4    17    18    2
     5    17    16    1
     6    16    11    1
     7    11    12   ar
     8    12    13   ar
     9    13    14   ar
    10    14     7    1
    11     7     8   am
    12     8     9    2
    13     8     1    1
    14     1     2   ar
    15     2     3   ar
    16     3    25    1
    17    25    26    1
    18    26    27   ar
    19    27    28   ar
    20    28    29   ar
    21    29    32    1
    22    32    33    1
    23    32    34    2
    24    32    35    2
    25    29    30   ar
    26    30    31   ar
    27     3     4   ar
    28     4     5   ar
    29     5    36    1
    30    36    37    1
    31    37    38    1
    32    37    39    1
    33    39    40    1
    34    40    41    1
    35     5     6   ar
    36    14    15   ar
    37    17    22    1
    38    22    23    1
    39    23    24    1
    40    15    11   ar
    41     6     1   ar
    42    31    26   ar
    43     7    10    1
@<TRIPOS>MOLECULE
*****
 41 43 0 0 0
SMALL
GASTEIGER

@<TRIPOS>ATOM
      1 C         139.6358  139.0518  160.3706 C.ar    1  UNL1        0.0597
      2 C         139.6200  138.2649  161.6475 C.ar    1  UNL1        0.0422
      3 C         138.9393  138.8212  162.8628 C.ar    1  UNL1        0.1485
      4 C         138.2744  140.1644  162.8013 C.ar    1  UNL1        0.0743
      5 C         138.2903  140.9513  161.5244 C.ar    1  UNL1        0.1417
      6 C         138.9710  140.3950  160.3091 C.ar    1  UNL1        0.0416
      7 N         141.8144  138.4743  159.0781 N.am    1  UNL1       -0.2644
      8 C         140.3165  138.4955  159.1552 C.2     1  UNL1        0.2508
      9 O         139.4993  137.9604  158.0168 O.2     1  UNL1       -0.2698
     10 H         142.3507  138.8255  159.8253 H       1  UNL1        0.1566
     11 N         143.4510  136.3671  156.2591 N.ar    1  UNL1       -0.2357
     12 C         143.6342  137.7570  155.7256 C.ar    1  UNL1        0.0988
     13 C         143.0434  138.7156  156.7167 C.ar    1  UNL1        0.0565
     14 C         142.4951  137.9180  157.8627 C.ar    1  UNL1        0.1557
     15 N         142.7470  136.4666  157.5799 N.ar    1  UNL1       -0.1534
     16 C         143.8939  135.1001  155.5894 C.3     1  UNL1        0.2423
     17 P         142.8944  134.0244  155.2834 P.3     1  UNL1        0.3677
     18 O         141.8949  132.9486  154.9773 O.2     1  UNL1       -0.2557
     19 O         141.9998  135.0396  154.6361 O.3     1  UNL1       -0.2928
     20 C         140.5751  135.5545  152.5254 C.3     1  UNL1        0.0352
     21 C         141.8512  135.0652  153.1437 C.3     1  UNL1        0.1515
     22 O         143.7890  133.0091  155.9307 O.3     1  UNL1       -0.2928
     23 C         144.0123  133.0432  157.4136 C.3     1  UNL1        0.1515
     24 C         145.2671  132.4641  157.9967 C.3     1  UNL1        0.0352
     25 O         138.9234  138.0343  164.1398 O.3     1  UNL1       -0.4534
     26 C         139.2195  138.7144  165.4436 C.ar    1  UNL1        0.1454
     27 C         140.5687  139.3254  165.6812 C.ar    1  UNL1        0.0388
     28 C         140.8649  140.0055  166.9850 C.ar    1  UNL1        0.0215
     29 C         139.8119  140.0746  168.0511 C.ar    1  UNL1        0.1059
     30 C         138.4628  139.4636  167.8134 C.ar    1  UNL1        0.0215
     31 C         138.1666  138.7835  166.5096 C.ar    1  UNL1        0.0388
     32 S         140.1080  140.7547  169.3548 S.O2    1  UNL1        0.0105
     33 C         140.4042  141.4347  170.6586 C.3     1  UNL1        0.1816
     34 O         139.8889  139.4600  170.0799 O.2     1  UNL1       -0.1686
     35 O         140.3271  142.0493  168.6297 O.2     1  UNL1       -0.1686
     36 O         137.6255  142.2945  161.4629 O.3     1  UNL1       -0.4765
     37 C         138.2817  143.4859  162.0953 C.3     1  UNL1        0.1954
     38 C         139.5136  144.0790  161.4785 C.3     1  UNL1        0.0500
     39 C         137.7060  144.0841  163.3447 C.3     1  UNL1        0.1855
     40 O         137.8088  143.3455  164.6461 O.3     1  UNL1       -0.3473
     41 C         139.1437  142.8632  165.1315 C.3     1  UNL1        0.1743
@<TRIPOS>BOND
     1    20    21    1
     2    21    19    1
     3    19    17    1
     4    17    18    2
     5    17    16    1
     6    16    11    1
     7    11    12   ar
     8    12    13   ar
     9    13    14   ar
    10    14     7    1
    11     7     8   am
    12     8     9    2
    13     8     1    1
    14     1     2   ar
    15     2     3   ar
    16     3    25    1
    17    25    26    1
    18    26    27   ar
    19    27    28   ar
    20    28    29   ar
    21    29    32    1
    22    32    33    1
    23    32    34    2
    24    32    35    2
    25    29    30   ar
    26    30    31   ar
    27     3     4   ar
    28     4     5   ar
    29     5    36    1
    30    36    37    1
    31    37    38    1
    32    37    39    1
    33    39    40    1
    34    40    41    1
    35     5     6   ar
    36    14    15   ar
    37    17    22    1
    38    22    23    1
    39    23    24    1
    40    15    11   ar
    41     6     1   ar
    42    31    26   ar
    43     7    10    1
@<TRIPOS>MOLECULE
*****
 41 43 0 0 0
SMALL
GASTEIGER

@<TRIPOS>ATOM
      1 C         142.0173  140.1455  160.6625 C.ar    1  UNL1        0.0597
      2 C         141.2768  139.5679  161.8321 C.ar    1  UNL1        0.0422
      3 C         140.5961  140.4771  162.8119 C.ar    1  UNL1        0.1485
      4 C         140.6561  141.9638  162.6222 C.ar    1  UNL1        0.0743
      5 C         141.3966  142.5414  161.4527 C.ar    1  UNL1        0.1417
      6 C         142.0772  141.6323  160.4728 C.ar    1  UNL1        0.0416
      7 N         142.0305  138.9011  158.3819 N.am    1  UNL1       -0.2644
      8 C         142.6980  139.2364  159.6826 C.2     1  UNL1        0.2508
      9 O         144.0462  138.6625  160.0035 O.2     1  UNL1       -0.2698
     10 H         141.1456  139.2777  158.1713 H       1  UNL1        0.1566
     11 N         143.5660  135.9998  156.3106 N.ar    1  UNL1       -0.2357
     12 C         143.9512  137.1862  155.4775 C.ar    1  UNL1        0.0988
     13 C         143.4229  138.4175  156.1520 C.ar    1  UNL1        0.0565
     14 C         142.7111  137.9919  157.4020 C.ar    1  UNL1        0.1557
     15 N         142.7996  136.4978  157.5000 N.ar    1  UNL1       -0.1534
     16 C         143.8902  134.5670  156.0075 C.3     1  UNL1        0.2423
     17 P         142.7843  133.5702  155.8245 P.3     1  UNL1        0.3677
     18 O         141.6784  132.5735  155.6413 O.2     1  UNL1       -0.2557
     19 O         142.9695  133.1050  157.2384 O.3     1  UNL1       -0.2928
     20 C         144.8839  131.4444  157.8105 C.3     1  UNL1        0.0352
     21 C         144.3487  132.8450  157.7678 C.3     1  UNL1        0.1515
     22 O         142.5991  134.0356  154.4105 O.3     1  UNL1       -0.2928
     23 C         141.2346  134.4196  153.9199 C.3     1  UNL1        0.1515
     24 C         140.7466  135.8282  154.0866 C.3     1  UNL1        0.0352
     25 O         139.8555  139.8995  163.9816 O.3     1  UNL1       -0.4534
     26 C         140.4788  139.9152  165.3458 C.ar    1  UNL1        0.1454
     27 C         141.9673  139.8006  165.4917 C.ar    1  UNL1        0.0388
     28 C         142.5906  139.8163  166.8560 C.ar    1  UNL1        0.0215
     29 C         141.7254  139.9467  168.0744 C.ar    1  UNL1        0.1059
     30 C         140.2370  140.0613  167.9285 C.ar    1  UNL1        0.0215
     31 C         139.6137  140.0456  166.5642 C.ar    1  UNL1        0.0388
     32 S         142.3487  139.9624  169.4387 S.O2    1  UNL1        0.0105
     33 C         142.9720  139.9781  170.8030 C.3     1  UNL1        0.1816
     34 O         143.0266  138.6572  169.1440 O.2     1  UNL1       -0.1686
     35 O         141.6708  141.2676  169.7333 O.2     1  UNL1       -0.1686
     36 O         141.4565  144.0282  161.2630 O.3     1  UNL1       -0.4765
     37 C         141.1857  144.9434  162.4201 C.3     1  UNL1        0.1954
     38 C         142.2597  145.2100  163.4328 C.3     1  UNL1        0.0500
     39 C         139.8409  145.5921  162.5645 C.3     1  UNL1        0.1855
     40 O         138.8475  145.0479  163.5477 O.3     1  UNL1       -0.3473
     41 C         137.7363  144.1573  163.0762 C.3     1  UNL1        0.1743
@<TRIPOS>BOND
     1    20    21    1
     2    21    19    1
     3    19    17    1
     4    17    18    2
     5    17    16    1
     6    16    11    1
     7    11    12   ar
     8    12    13   ar
     9    13    14   ar
    10    14     7    1
    11     7     8   am
    12     8     9    2
    13     8     1    1
    14     1     2   ar
    15     2     3   ar
    16     3    25    1
    17    25    26    1
    18    26    27   ar
    19    27    28   ar
    20    28    29   ar
    21    29    32    1
    22    32    33    1
    23    32    34    2
    24    32    35    2
    25    29    30   ar
    26    30    31   ar
    27     3     4   ar
    28     4     5   ar
    29     5    36    1
    30    36    37    1
    31    37    38    1
    32    37    39    1
    33    39    40    1
    34    40    41    1
    35     5     6   ar
    36    14    15   ar
    37    17    22    1
    38    22    23    1
    39    23    24    1
    40    15    11   ar
    41     6     1   ar
    42    31    26   ar
    43     7    10    1
@<TRIPOS>MOLECULE
*****
 41 43 0 0 0
SMALL
GASTEIGER

@<TRIPOS>ATOM
      1 C         141.9653  139.9601  160.8092 C.ar    1  UNL1        0.0597
      2 C         141.2807  139.2432  161.9349 C.ar    1  UNL1        0.0422
      3 C         140.5600  140.0244  162.9933 C.ar    1  UNL1        0.1485
      4 C         140.5238  141.5224  162.9259 C.ar    1  UNL1        0.0743
      5 C         141.2084  142.2393  161.8002 C.ar    1  UNL1        0.1417
      6 C         141.9292  141.4581  160.7418 C.ar    1  UNL1        0.0416
      7 N         141.9470  138.7041  158.5349 N.am    1  UNL1       -0.2644
      8 C         142.6861  139.1789  159.7507 C.2     1  UNL1        0.2508
      9 O         144.1460  138.8725  159.9081 O.2     1  UNL1       -0.2698
     10 H         140.9888  138.9051  158.4316 H       1  UNL1        0.1566
     11 N         143.5568  136.0806  156.1703 N.ar    1  UNL1       -0.2357
     12 C         143.9971  137.3611  155.5250 C.ar    1  UNL1        0.0988
     13 C         143.4476  138.4998  156.3323 C.ar    1  UNL1        0.0565
     14 C         142.6678  137.9229  157.4764 C.ar    1  UNL1        0.1557
     15 N         142.7352  136.4278  157.3763 N.ar    1  UNL1       -0.1534
     16 C         143.8811  134.6960  155.6933 C.3     1  UNL1        0.2423
     17 P         142.7911  133.6741  155.5596 P.3     1  UNL1        0.3677
     18 O         141.7012  132.6523  155.4260 O.2     1  UNL1       -0.2557
     19 O         142.2882  134.3713  154.3304 O.3     1  UNL1       -0.2928
     20 C         140.8114  136.4398  153.7916 C.3     1  UNL1        0.0352
     21 C         140.9529  135.0545  154.3491 C.3     1  UNL1        0.1515
     22 O         143.2942  132.9769  156.7889 O.3     1  UNL1       -0.2928
     23 C         144.6147  132.2660  156.7605 C.3     1  UNL1        0.1515
     24 C         145.4339  132.1551  158.0121 C.3     1  UNL1        0.0352
     25 O         139.8753  139.3075  164.1192 O.3     1  UNL1       -0.4534
     26 C         140.2956  139.5626  165.5364 C.ar    1  UNL1        0.1454
     27 C         139.2670  139.9021  166.5741 C.ar    1  UNL1        0.0388
     28 C         139.6872  140.1572  167.9912 C.ar    1  UNL1        0.0215
     29 C         141.1360  140.0726  168.3707 C.ar    1  UNL1        0.1059
     30 C         142.1645  139.7331  167.3330 C.ar    1  UNL1        0.0215
     31 C         141.7443  139.4780  165.9158 C.ar    1  UNL1        0.0388
     32 S         141.5562  140.3277  169.7879 S.O2    1  UNL1        0.0105
     33 C         141.9764  140.5827  171.2050 C.3     1  UNL1        0.1816
     34 O         142.7753  141.0504  169.2963 O.2     1  UNL1       -0.1686
     35 O         140.3372  139.6049  170.2794 O.2     1  UNL1       -0.1686
     36 O         141.1723  143.7373  161.7328 O.3     1  UNL1       -0.4765
     37 C         140.9891  144.5403  162.9864 C.3     1  UNL1        0.1954
     38 C         142.1369  144.7227  163.9347 C.3     1  UNL1        0.0500
     39 C         139.6580  145.1609  163.2919 C.3     1  UNL1        0.1855
     40 O         138.4536  144.7910  162.4780 O.3     1  UNL1       -0.3473
     41 C         137.6557  143.5707  162.8310 C.3     1  UNL1        0.1743
@<TRIPOS>BOND
     1    20    21    1
     2    21    19    1
     3    19    17    1
     4    17    18    2
     5    17    16    1
     6    16    11    1
     7    11    12   ar
     8    12    13   ar
     9    13    14   ar
    10    14     7    1
    11     7     8   am
    12     8     9    2
    13     8     1    1
    14     1     2   ar
    15     2     3   ar
    16     3    25    1
    17    25    26    1
    18    26    27   ar
    19    27    28   ar
    20    28    29   ar
    21    29    32    1
    22    32    33    1
    23    32    34    2
    24    32    35    2
    25    29    30   ar
    26    30    31   ar
    27     3     4   ar
    28     4     5   ar
    29     5    36    1
    30    36    37    1
    31    37    38    1
    32    37    39    1
    33    39    40    1
    34    40    41    1
    35     5     6   ar
    36    14    15   ar
    37    17    22    1
    38    22    23    1
    39    23    24    1
    40    15    11   ar
    41     6     1   ar
    42    31    26   ar
    43     7    10    1
@<TRIPOS>MOLECULE
*****
 41 43 0 0 0
SMALL
GASTEIGER

@<TRIPOS>ATOM
      1 C         139.2512  139.3977  160.1855 C.ar    1  UNL1        0.0597
      2 C         139.1663  138.5501  161.4201 C.ar    1  UNL1        0.0422
      3 C         138.5854  139.1179  162.6811 C.ar    1  UNL1        0.1485
      4 C         138.0894  140.5333  162.7075 C.ar    1  UNL1        0.0743
      5 C         138.1743  141.3809  161.4729 C.ar    1  UNL1        0.1417
      6 C         138.7552  140.8131  160.2119 C.ar    1  UNL1        0.0416
      7 N         139.0132  138.8011  157.6681 N.am    1  UNL1       -0.2644
      8 C         139.8321  138.8299  158.9245 C.2     1  UNL1        0.2508
      9 O         141.2320  138.2910  158.9199 O.2     1  UNL1       -0.2698
     10 H         138.0945  139.1549  157.6711 H       1  UNL1        0.1566
     11 N         140.5611  136.6922  154.8006 N.ar    1  UNL1       -0.2357
     12 C         140.4150  138.0272  154.1323 C.ar    1  UNL1        0.0988
     13 C         139.8174  138.9797  155.1251 C.ar    1  UNL1        0.0565
     14 C         139.5942  138.2333  156.4070 C.ar    1  UNL1        0.1557
     15 N         140.0538  136.8197  156.2065 N.ar    1  UNL1       -0.1534
     16 C         141.1170  135.4483  154.1733 C.3     1  UNL1        0.2423
     17 P         142.1583  134.6452  154.8949 P.3     1  UNL1        0.3677
     18 O         143.1996  133.8421  155.6165 O.2     1  UNL1       -0.2557
     19 O         143.2075  135.6345  154.4819 O.3     1  UNL1       -0.2928
     20 C         143.7024  137.6857  155.9976 C.3     1  UNL1        0.0352
     21 C         144.0541  136.3076  155.5212 C.3     1  UNL1        0.1515
     22 O         141.1091  133.6559  155.3078 O.3     1  UNL1       -0.2928
     23 C         141.2098  132.2266  154.8639 C.3     1  UNL1        0.1515
     24 C         141.3993  131.9040  153.4114 C.3     1  UNL1        0.0352
     25 O         138.5004  138.2703  163.9158 O.3     1  UNL1       -0.4534
     26 C         138.9178  138.8332  165.2421 C.ar    1  UNL1        0.1454
     27 C         140.2928  139.4076  165.4138 C.ar    1  UNL1        0.0388
     28 C         140.7102  139.9705  166.7401 C.ar    1  UNL1        0.0215
     29 C         139.7525  139.9590  167.8946 C.ar    1  UNL1        0.1059
     30 C         138.3776  139.3846  167.7228 C.ar    1  UNL1        0.0215
     31 C         137.9602  138.8217  166.3966 C.ar    1  UNL1        0.0388
     32 S         140.1699  140.5218  169.2209 S.O2    1  UNL1        0.0105
     33 C         140.5873  141.0847  170.5471 C.3     1  UNL1        0.1816
     34 O         139.0094  139.8348  169.8776 O.2     1  UNL1       -0.1686
     35 O         141.3304  141.2088  168.5641 O.2     1  UNL1       -0.1686
     36 O         137.6784  142.7963  161.4992 O.3     1  UNL1       -0.4765
     37 C         138.3877  143.8242  162.3300 C.3     1  UNL1        0.1954
     38 C         139.6171  144.4997  161.7987 C.3     1  UNL1        0.0500
     39 C         137.8676  144.1767  163.6921 C.3     1  UNL1        0.1855
     40 O         138.2215  143.3235  164.8740 O.3     1  UNL1       -0.3473
     41 C         139.6424  143.2527  165.3493 C.3     1  UNL1        0.1743
@<TRIPOS>BOND
     1    20    21    1
     2    21    19    1
     3    19    17    1
     4    17    18    2
     5    17    16    1
     6    16    11    1
     7    11    12   ar
     8    12    13   ar
     9    13    14   ar
    10    14     7    1
    11     7     8   am
    12     8     9    2
    13     8     1    1
    14     1     2   ar
    15     2     3   ar
    16     3    25    1
    17    25    26    1
    18    26    27   ar
    19    27    28   ar
    20    28    29   ar
    21    29    32    1
    22    32    33    1
    23    32    34    2
    24    32    35    2
    25    29    30   ar
    26    30    31   ar
    27     3     4   ar
    28     4     5   ar
    29     5    36    1
    30    36    37    1
    31    37    38    1
    32    37    39    1
    33    39    40    1
    34    40    41    1
    35     5     6   ar
    36    14    15   ar
    37    17    22    1
    38    22    23    1
    39    23    24    1
    40    15    11   ar
    41     6     1   ar
    42    31    26   ar
    43     7    10    1
@<TRIPOS>MOLECULE
*****
 41 43 0 0 0
SMALL
GASTEIGER

@<TRIPOS>ATOM
      1 C         141.8176  140.1233  160.3430 C.ar    1  UNL1        0.0597
      2 C         141.0283  139.4577  161.4310 C.ar    1  UNL1        0.0422
      3 C         140.4395  140.2785  162.5399 C.ar    1  UNL1        0.1485
      4 C         140.6402  141.7649  162.5607 C.ar    1  UNL1        0.0743
      5 C         141.4296  142.4304  161.4727 C.ar    1  UNL1        0.1417
      6 C         142.0183  141.6097  160.3638 C.ar    1  UNL1        0.0416
      7 N         141.5169  138.7321  158.1694 N.am    1  UNL1       -0.2644
      8 C         142.4064  139.3025  159.2340 C.2     1  UNL1        0.2508
      9 O         143.8847  139.0522  159.1896 O.2     1  UNL1       -0.2698
     10 H         140.5466  138.8964  158.1986 H       1  UNL1        0.1566
     11 N         142.7099  136.0296  155.6517 N.ar    1  UNL1       -0.2357
     12 C         143.3134  137.2671  155.0562 C.ar    1  UNL1        0.0988
     13 C         142.9399  138.4301  155.9270 C.ar    1  UNL1        0.0565
     14 C         142.1056  137.9113  157.0605 C.ar    1  UNL1        0.1557
     15 N         141.9634  136.4278  156.8904 N.ar    1  UNL1       -0.1534
     16 C         142.8314  134.6383  155.1046 C.3     1  UNL1        0.2423
     17 P         142.6724  133.4574  156.0157 P.3     1  UNL1        0.3677
     18 O         142.5134  132.2765  156.9269 O.2     1  UNL1       -0.2557
     19 O         144.0583  133.6791  156.5451 O.3     1  UNL1       -0.2928
     20 C         145.6234  132.3101  158.1027 C.3     1  UNL1        0.0352
     21 C         144.4245  133.1920  157.9157 C.3     1  UNL1        0.1515
     22 O         141.2865  133.2357  155.4864 O.3     1  UNL1       -0.2928
     23 C         140.9731  131.9970  154.7006 C.3     1  UNL1        0.1515
     24 C         141.9116  131.5325  153.6267 C.3     1  UNL1        0.0352
     25 O         139.6501  139.6129  163.6280 O.3     1  UNL1       -0.4534
     26 C         140.1275  139.6787  165.0485 C.ar    1  UNL1        0.1454
     27 C         141.5890  139.5379  165.3558 C.ar    1  UNL1        0.0388
     28 C         142.0663  139.6037  166.7763 C.ar    1  UNL1        0.0215
     29 C         141.0822  139.8102  167.8894 C.ar    1  UNL1        0.1059
     30 C         139.6209  139.9510  167.5821 C.ar    1  UNL1        0.0215
     31 C         139.1435  139.8852  166.1616 C.ar    1  UNL1        0.0388
     32 S         141.5596  139.8760  169.3099 S.O2    1  UNL1        0.0105
     33 C         142.0370  139.9418  170.7304 C.3     1  UNL1        0.1816
     34 O         140.1410  139.7951  169.7904 O.2     1  UNL1       -0.1686
     35 O         142.9783  139.9570  168.8294 O.2     1  UNL1       -0.1686
     36 O         141.6302  143.9168  161.4936 O.3     1  UNL1       -0.4765
     37 C         142.1675  144.5839  162.7250 C.3     1  UNL1        0.1954
     38 C         141.2233  145.1279  163.7558 C.3     1  UNL1        0.0500
     39 C         143.6489  144.7069  162.9256 C.3     1  UNL1        0.1855
     40 O         144.5904  143.9155  162.0669 O.3     1  UNL1       -0.3473
     41 C         144.9821  142.5243  162.4684 C.3     1  UNL1        0.1743
@<TRIPOS>BOND
     1    20    21    1
     2    21    19    1
     3    19    17    1
     4    17    18    2
     5    17    16    1
     6    16    11    1
     7    11    12   ar
     8    12    13   ar
     9    13    14   ar
    10    14     7    1
    11     7     8   am
    12     8     9    2
    13     8     1    1
    14     1     2   ar
    15     2     3   ar
    16     3    25    1
    17    25    26    1
    18    26    27   ar
    19    27    28   ar
    20    28    29   ar
    21    29    32    1
    22    32    33    1
    23    32    34    2
    24    32    35    2
    25    29    30   ar
    26    30    31   ar
    27     3     4   ar
    28     4     5   ar
    29     5    36    1
    30    36    37    1
    31    37    38    1
    32    37    39    1
    33    39    40    1
    34    40    41    1
    35     5     6   ar
    36    14    15   ar
    37    17    22    1
    38    22    23    1
    39    23    24    1
    40    15    11   ar
    41     6     1   ar
    42    31    26   ar
    43     7    10    1
@<TRIPOS>MOLECULE
*****
 41 43 0 0 0
SMALL
GASTEIGER

@<TRIPOS>ATOM
      1 C         143.4232  140.2928  159.4721 C.ar    1  UNL1        0.0597
      2 C         144.0948  139.8536  160.7394 C.ar    1  UNL1        0.0422
      3 C         144.3287  140.8400  161.8449 C.ar    1  UNL1        0.1485
      4 C         143.8909  142.2656  161.6832 C.ar    1  UNL1        0.0743
      5 C         143.2193  142.7048  160.4159 C.ar    1  UNL1        0.1417
      6 C         142.9855  141.7184  159.3104 C.ar    1  UNL1        0.0416
      7 N         142.0855  138.2975  158.4825 N.am    1  UNL1       -0.2644
      8 C         143.1894  139.3064  158.3664 C.2     1  UNL1        0.2508
      9 O         144.0594  139.3290  157.1448 O.2     1  UNL1       -0.2698
     10 H         141.5144  138.2827  159.2843 H       1  UNL1        0.1566
     11 N         142.1177  135.4282  155.8688 N.ar    1  UNL1       -0.2357
     12 C         140.8657  136.1583  155.4822 C.ar    1  UNL1        0.0988
     13 C         140.7012  137.3221  156.4143 C.ar    1  UNL1        0.0565
     14 C         141.8516  137.3111  157.3768 C.ar    1  UNL1        0.1557
     15 N         142.7270  136.1406  157.0397 N.ar    1  UNL1       -0.1534
     16 C         142.6644  134.2011  155.2015 C.3     1  UNL1        0.2423
     17 P         142.6658  132.8893  155.9291 P.3     1  UNL1        0.3677
     18 O         142.6672  131.5775  156.6565 O.2     1  UNL1       -0.2557
     19 O         144.1341  133.0393  156.1967 O.3     1  UNL1       -0.2928
     20 C         145.6512  132.2062  158.1343 C.3     1  UNL1        0.0352
     21 C         144.8904  131.9331  156.8707 C.3     1  UNL1        0.1515
     22 O         141.1975  132.7393  155.6614 O.3     1  UNL1       -0.2928
     23 C         140.7089  131.6566  154.7454 C.3     1  UNL1        0.1515
     24 C         141.3406  131.4728  153.3974 C.3     1  UNL1        0.0352
     25 O         145.0003  140.4009  163.1123 O.3     1  UNL1       -0.4534
     26 C         144.2083  140.2903  164.3814 C.ar    1  UNL1        0.1454
     27 C         143.8121  138.9408  164.9030 C.ar    1  UNL1        0.0388
     28 C         143.0201  138.8303  166.1720 C.ar    1  UNL1        0.0215
     29 C         142.6243  140.0692  166.9195 C.ar    1  UNL1        0.1059
     30 C         143.0206  141.4185  166.3979 C.ar    1  UNL1        0.0215
     31 C         143.8126  141.5291  165.1288 C.ar    1  UNL1        0.0388
     32 S         141.8324  139.9586  168.1886 S.O2    1  UNL1        0.0105
     33 C         141.0404  139.8480  169.4576 C.3     1  UNL1        0.1816
     34 O         142.9730  139.2318  168.8371 O.2     1  UNL1       -0.1686
     35 O         140.6917  140.6854  167.5400 O.2     1  UNL1       -0.1686
     36 O         142.7815  144.1303  160.2542 O.3     1  UNL1       -0.4765
     37 C         141.3879  144.5346  160.6341 C.3     1  UNL1        0.1954
     38 C         140.5214  145.2583  159.6464 C.3     1  UNL1        0.0500
     39 C         140.8608  144.2153  162.0017 C.3     1  UNL1        0.1855
     40 O         139.7505  143.2198  162.1639 O.3     1  UNL1       -0.3473
     41 C         139.7315  141.9745  161.3278 C.3     1  UNL1        0.1743
@<TRIPOS>BOND
     1    20    21    1
     2    21    19    1
     3    19    17    1
     4    17    18    2
     5    17    16    1
     6    16    11    1
     7    11    12   ar
     8    12    13   ar
     9    13    14   ar
    10    14     7    1
    11     7     8   am
    12     8     9    2
    13     8     1    1
    14     1     2   ar
    15     2     3   ar
    16     3    25    1
    17    25    26    1
    18    26    27   ar
    19    27    28   ar
    20    28    29   ar
    21    29    32    1
    22    32    33    1
    23    32    34    2
    24    32    35    2
    25    29    30   ar
    26    30    31   ar
    27     3     4   ar
    28     4     5   ar
    29     5    36    1
    30    36    37    1
    31    37    38    1
    32    37    39    1
    33    39    40    1
    34    40    41    1
    35     5     6   ar
    36    14    15   ar
    37    17    22    1
    38    22    23    1
    39    23    24    1
    40    15    11   ar
    41     6     1   ar
    42    31    26   ar
    43     7    10    1
@<TRIPOS>MOLECULE
*****
 41 43 0 0 0
SMALL
GASTEIGER

@<TRIPOS>ATOM
      1 C         141.5978  137.8587  157.7389 C.ar    1  UNL1        0.0597
      2 C         142.5978  136.9021  157.1602 C.ar    1  UNL1        0.0422
      3 C         142.1940  135.9734  156.0536 C.ar    1  UNL1        0.1485
      4 C         140.7902  136.0014  155.5258 C.ar    1  UNL1        0.0743
      5 C         139.7902  136.9580  156.1045 C.ar    1  UNL1        0.1417
      6 C         140.1940  137.8866  157.2110 C.ar    1  UNL1        0.0416
      7 N         143.4071  138.7641  159.3688 N.am    1  UNL1       -0.2644
      8 C         142.0016  138.7874  158.8455 C.2     1  UNL1        0.2508
      9 O         140.9998  139.7394  159.4287 O.2     1  UNL1       -0.2698
     10 H         144.0646  138.1393  158.9860 H       1  UNL1        0.1566
     11 N         144.3747  141.7049  161.7100 N.ar    1  UNL1       -0.2357
     12 C         144.4898  140.5389  162.6466 C.ar    1  UNL1        0.0988
     13 C         144.1414  139.2953  161.8835 C.ar    1  UNL1        0.0565
     14 C         143.8109  139.6929  160.4754 C.ar    1  UNL1        0.1557
     15 N         143.9551  141.1820  160.3682 N.ar    1  UNL1       -0.1534
     16 C         144.6336  143.1416  162.0547 C.3     1  UNL1        0.2423
     17 P         143.5251  143.9945  162.5967 P.3     1  UNL1        0.3677
     18 O         142.4165  144.8474  163.1386 O.2     1  UNL1       -0.2557
     19 O         143.9704  143.6849  163.9952 O.3     1  UNL1       -0.2928
     20 C         143.4402  142.2191  166.0737 C.3     1  UNL1        0.0352
     21 C         142.9854  143.1590  164.9968 C.3     1  UNL1        0.1515
     22 O         143.0797  144.3041  161.1981 O.3     1  UNL1       -0.2928
     23 C         141.6166  144.3844  160.8774 C.3     1  UNL1        0.1515
     24 C         140.9133  143.2010  160.2816 C.3     1  UNL1        0.0352
     25 O         143.1940  135.0168  155.4749 O.3     1  UNL1       -0.4534
     26 C         143.2876  133.6172  156.0062 C.ar    1  UNL1        0.1454
     27 C         144.3157  133.2761  157.0439 C.ar    1  UNL1        0.0388
     28 C         144.4093  131.8765  157.5753 C.ar    1  UNL1        0.0215
     29 C         143.4747  130.8180  157.0690 C.ar    1  UNL1        0.1059
     30 C         142.4467  131.1591  156.0314 C.ar    1  UNL1        0.0215
     31 C         142.3531  132.5587  155.5000 C.ar    1  UNL1        0.0388
     32 S         143.5683  129.4184  157.6003 S.O2    1  UNL1        0.0105
     33 C         143.6619  128.0188  158.1317 C.3     1  UNL1        0.1816
     34 O         142.5551  128.9672  156.5905 O.2     1  UNL1       -0.1686
     35 O         144.5816  129.8695  158.6102 O.2     1  UNL1       -0.1686
     36 O         138.3864  136.9859  155.5767 O.3     1  UNL1       -0.4765
     37 C         138.0032  137.9760  154.5170 C.3     1  UNL1        0.1954
     38 C         139.0624  138.6119  153.6664 C.3     1  UNL1        0.0500
     39 C         136.5606  138.3302  154.3081 C.3     1  UNL1        0.1855
     40 O         135.8548  139.2135  155.2938 O.3     1  UNL1       -0.3473
     41 C         134.5510  139.8570  154.9249 C.3     1  UNL1        0.1743
@<TRIPOS>BOND
     1    20    21    1
     2    21    19    1
     3    19    17    1
     4    17    18    2
     5    17    16    1
     6    16    11    1
     7    11    12   ar
     8    12    13   ar
     9    13    14   ar
    10    14     7    1
    11     7     8   am
    12     8     9    2
    13     8     1    1
    14     1     2   ar
    15     2     3   ar
    16     3    25    1
    17    25    26    1
    18    26    27   ar
    19    27    28   ar
    20    28    29   ar
    21    29    32    1
    22    32    33    1
    23    32    34    2
    24    32    35    2
    25    29    30   ar
    26    30    31   ar
    27     3     4   ar
    28     4     5   ar
    29     5    36    1
    30    36    37    1
    31    37    38    1
    32    37    39    1
    33    39    40    1
    34    40    41    1
    35     5     6   ar
    36    14    15   ar
    37    17    22    1
    38    22    23    1
    39    23    24    1
    40    15    11   ar
    41     6     1   ar
    42    31    26   ar
    43     7    10    1
