@<TRIPOS>MOLECULE
*****
 29 32 0 0 0
SMALL
GASTEIGER

@<TRIPOS>ATOM
      1 O         141.5117  138.2623  160.7105 O.2     1  UNL1       -0.2522
      2 C         142.4656  139.3260  160.2538 C.2     1  UNL1        0.3080
      3 N         142.8703  139.4015  158.8114 N.am    1  UNL1       -0.2681
      4 N         143.0147  140.3143  161.2396 N.am    1  UNL1       -0.2559
      5 C         143.9598  141.3357  160.6793 C.3     1  UNL1        0.1425
      6 C         144.6697  142.4457  161.3964 C.3     1  UNL1        0.2268
      7 O         144.6100  142.8082  162.8506 O.3     1  UNL1       -0.4739
      8 C         143.8256  142.1506  163.9471 C.ar    1  UNL1        0.1362
      9 C         144.0503  142.8303  165.2652 C.ar    1  UNL1        0.0366
     10 C         143.3565  142.3273  166.4964 C.ar    1  UNL1        0.0031
     11 C         142.4381  141.1445  166.4093 C.ar    1  UNL1        0.0000
     12 C         142.2135  140.4648  165.0911 C.ar    1  UNL1        0.0004
     13 C         142.9072  140.9678  163.8601 C.ar    1  UNL1        0.0317
     14 C         142.5464  140.1506  162.6550 C.3     1  UNL1        0.1248
     15 H         143.4964  140.0997  158.5117 H       1  UNL1        0.1564
     16 C         142.3211  138.4131  157.8257 C.ar    1  UNL1        0.0525
     17 C         141.1862  138.8030  156.9258 C.ar    1  UNL1        0.0156
     18 C         140.6370  137.8147  155.9401 C.ar    1  UNL1        0.0135
     19 C         141.2228  136.4365  155.8543 C.ar    1  UNL1        0.0683
     20 CL        140.6736  135.4482  154.8685 Cl      1  UNL1       -0.0814
     21 C         142.3578  136.0466  156.7542 C.ar    1  UNL1        0.0694
     22 CL        142.9436  134.6684  156.6683 Cl      1  UNL1       -0.0813
     23 C         142.9069  137.0349  157.7398 C.ar    1  UNL1        0.0270
     24 C         141.7443  140.6415  167.6404 C.ar    1  UNL1        0.0031
     25 C         142.5337  139.9695  168.7245 C.ar    1  UNL1        0.0207
     26 C         141.8400  139.4664  169.9556 C.ar    1  UNL1        0.0989
     27 N         140.3567  139.6354  170.1026 N.ar    1  UNL1       -0.2423
     28 C         139.5673  140.3074  169.0185 C.ar    1  UNL1        0.0989
     29 C         140.2612  140.8104  167.7874 C.ar    1  UNL1        0.0207
@<TRIPOS>BOND
     1     1     2    2
     2     2     3   am
     3     3    16    1
     4    16    17   ar
     5    17    18   ar
     6    18    19   ar
     7    19    20    1
     8    19    21   ar
     9    21    22    1
    10    21    23   ar
    11     2     4   am
    12     4     5    1
    13     5     6    1
    14     6     7    1
    15     7     8    1
    16     8     9   ar
    17     9    10   ar
    18    10    11   ar
    19    11    24    1
    20    24    25   ar
    21    25    26   ar
    22    26    27   ar
    23    27    28   ar
    24    28    29   ar
    25    11    12   ar
    26    12    13   ar
    27    13    14    1
    28    23    16   ar
    29    14     4    1
    30    13     8   ar
    31    29    24   ar
    32     3    15    1
@<TRIPOS>MOLECULE
*****
 29 32 0 0 0
SMALL
GASTEIGER

@<TRIPOS>ATOM
      1 O         142.4606  137.3768  159.6660 O.2     1  UNL1       -0.2522
      2 C         143.0268  138.4662  158.8043 C.2     1  UNL1        0.3080
      3 N         143.1425  138.2665  157.3222 N.am    1  UNL1       -0.2681
      4 N         143.4773  139.7554  159.4249 N.am    1  UNL1       -0.2559
      5 C         144.0275  140.7776  158.4748 C.3     1  UNL1        0.1425
      6 C         144.5544  142.1488  158.7786 C.3     1  UNL1        0.2268
      7 O         144.6611  142.8364  160.1073 O.3     1  UNL1       -0.4739
      8 C         144.2675  142.3228  161.4606 C.ar    1  UNL1        0.1362
      9 C         144.5430  143.3352  162.5325 C.ar    1  UNL1        0.0366
     10 C         144.2209  143.0195  163.9631 C.ar    1  UNL1        0.0031
     11 C         143.6232  141.6912  164.3217 C.ar    1  UNL1        0.0000
     12 C         143.3476  140.6788  163.2497 C.ar    1  UNL1        0.0004
     13 C         143.6698  140.9946  161.8192 C.ar    1  UNL1        0.0317
     14 C         143.3182  139.8520  160.9131 C.3     1  UNL1        0.1248
     15 H         143.5141  138.9816  156.7567 H       1  UNL1        0.1564
     16 C         142.6920  136.9772  156.7017 C.ar    1  UNL1        0.0525
     17 C         141.3547  136.8966  156.0271 C.ar    1  UNL1        0.0156
     18 C         140.9043  135.6074  155.4066 C.ar    1  UNL1        0.0135
     19 C         141.7910  134.3988  155.4608 C.ar    1  UNL1        0.0683
     20 CL        141.3405  133.1096  154.8404 Cl      1  UNL1       -0.0814
     21 C         143.1283  134.4795  156.1355 C.ar    1  UNL1        0.0694
     22 CL        144.0151  133.2708  156.1897 Cl      1  UNL1       -0.0813
     23 C         143.5788  135.7686  156.7559 C.ar    1  UNL1        0.0270
     24 C         143.3011  141.3754  165.7523 C.ar    1  UNL1        0.0031
     25 C         142.9423  139.9739  166.1485 C.ar    1  UNL1        0.0207
     26 C         142.6202  139.6581  167.5790 C.ar    1  UNL1        0.0989
     27 N         142.6568  140.7439  168.6134 N.ar    1  UNL1       -0.2423
     28 C         143.0155  142.1454  168.2172 C.ar    1  UNL1        0.0989
     29 C         143.3376  142.4612  166.7865 C.ar    1  UNL1        0.0207
@<TRIPOS>BOND
     1     1     2    2
     2     2     3   am
     3     3    16    1
     4    16    17   ar
     5    17    18   ar
     6    18    19   ar
     7    19    20    1
     8    19    21   ar
     9    21    22    1
    10    21    23   ar
    11     2     4   am
    12     4     5    1
    13     5     6    1
    14     6     7    1
    15     7     8    1
    16     8     9   ar
    17     9    10   ar
    18    10    11   ar
    19    11    24    1
    20    24    25   ar
    21    25    26   ar
    22    26    27   ar
    23    27    28   ar
    24    28    29   ar
    25    11    12   ar
    26    12    13   ar
    27    13    14    1
    28    23    16   ar
    29    14     4    1
    30    13     8   ar
    31    29    24   ar
    32     3    15    1
@<TRIPOS>MOLECULE
*****
 29 32 0 0 0
SMALL
GASTEIGER

@<TRIPOS>ATOM
      1 O         142.5669  141.5673  161.5671 O.2     1  UNL1       -0.2522
      2 C         141.6211  140.4941  161.1158 C.2     1  UNL1        0.3080
      3 N         141.5978  140.0714  159.6768 N.am    1  UNL1       -0.2681
      4 N         140.6985  139.8437  162.1036 N.am    1  UNL1       -0.2559
      5 C         139.7941  138.7833  161.5488 C.3     1  UNL1        0.1425
      6 C         138.7700  137.9569  162.2690 C.3     1  UNL1        0.2268
      7 O         138.3976  137.9868  163.7216 O.3     1  UNL1       -0.4739
      8 C         138.9571  138.8505  164.8131 C.ar    1  UNL1        0.1362
      9 C         138.3027  138.5605  166.1312 C.ar    1  UNL1        0.0366
     10 C         138.7184  139.3175  167.3577 C.ar    1  UNL1        0.0031
     11 C         139.7886  140.3646  167.2659 C.ar    1  UNL1        0.0000
     12 C         140.4430  140.6546  165.9476 C.ar    1  UNL1        0.0004
     13 C         140.0273  139.8975  164.7213 C.ar    1  UNL1        0.0317
     14 C         140.8022  140.3395  163.5154 C.3     1  UNL1        0.1248
     15 H         140.9770  139.3670  159.3807 H       1  UNL1        0.1564
     16 C         142.5205  140.7219  158.6890 C.ar    1  UNL1        0.0525
     17 C         143.8509  140.1003  158.3835 C.ar    1  UNL1        0.0156
     18 C         144.7735  140.7508  157.3957 C.ar    1  UNL1        0.0135
     19 C         144.3656  142.0229  156.7135 C.ar    1  UNL1        0.0683
     20 CL        145.2883  142.6733  155.7257 Cl      1  UNL1       -0.0814
     21 C         143.0351  142.6444  157.0191 C.ar    1  UNL1        0.0694
     22 CL        142.6272  143.9166  156.3368 Cl      1  UNL1       -0.0813
     23 C         142.1126  141.9940  158.0068 C.ar    1  UNL1        0.0270
     24 C         140.2043  141.1216  168.4922 C.ar    1  UNL1        0.0031
     25 C         140.3968  142.6078  168.4269 C.ar    1  UNL1        0.0207
     26 C         140.8125  143.3648  169.6533 C.ar    1  UNL1        0.0989
     27 N         141.0359  142.6357  170.9450 N.ar    1  UNL1       -0.2423
     28 C         140.8434  141.1495  171.0103 C.ar    1  UNL1        0.0989
     29 C         140.4277  140.3925  169.7839 C.ar    1  UNL1        0.0207
@<TRIPOS>BOND
     1     1     2    2
     2     2     3   am
     3     3    16    1
     4    16    17   ar
     5    17    18   ar
     6    18    19   ar
     7    19    20    1
     8    19    21   ar
     9    21    22    1
    10    21    23   ar
    11     2     4   am
    12     4     5    1
    13     5     6    1
    14     6     7    1
    15     7     8    1
    16     8     9   ar
    17     9    10   ar
    18    10    11   ar
    19    11    24    1
    20    24    25   ar
    21    25    26   ar
    22    26    27   ar
    23    27    28   ar
    24    28    29   ar
    25    11    12   ar
    26    12    13   ar
    27    13    14    1
    28    23    16   ar
    29    14     4    1
    30    13     8   ar
    31    29    24   ar
    32     3    15    1
@<TRIPOS>MOLECULE
*****
 29 32 0 0 0
SMALL
GASTEIGER

@<TRIPOS>ATOM
      1 O         140.6735  143.2566  161.7876 O.2     1  UNL1       -0.2522
      2 C         141.6459  142.2781  161.1987 C.2     1  UNL1        0.3080
      3 N         141.9700  142.3313  159.7351 N.am    1  UNL1       -0.2681
      4 N         142.2942  141.2462  162.0733 N.am    1  UNL1       -0.2559
      5 C         143.2499  140.3172  161.3850 C.3     1  UNL1        0.1425
      6 C         144.0485  139.1923  161.9741 C.3     1  UNL1        0.2268
      7 O         144.0886  138.7187  163.3967 O.3     1  UNL1       -0.4739
      8 C         143.3401  139.2528  164.5818 C.ar    1  UNL1        0.1362
      9 C         143.6702  138.4874  165.8289 C.ar    1  UNL1        0.0366
     10 C         143.0266  138.8618  167.1311 C.ar    1  UNL1        0.0031
     11 C         142.0530  140.0016  167.1862 C.ar    1  UNL1        0.0000
     12 C         141.7230  140.7670  165.9390 C.ar    1  UNL1        0.0004
     13 C         142.3666  140.3926  164.6369 C.ar    1  UNL1        0.0317
     14 C         141.9011  141.2797  163.5204 C.3     1  UNL1        0.1248
     15 H         142.6082  141.6891  159.3485 H       1  UNL1        0.1564
     16 C         141.3217  143.3633  158.8604 C.ar    1  UNL1        0.0525
     17 C         141.8390  144.7712  158.8518 C.ar    1  UNL1        0.0156
     18 C         141.1907  145.8030  157.9771 C.ar    1  UNL1        0.0135
     19 C         140.0251  145.4269  157.1112 C.ar    1  UNL1        0.0683
     20 CL        139.3768  146.4588  156.2365 Cl      1  UNL1       -0.0814
     21 C         139.5078  144.0190  157.1199 C.ar    1  UNL1        0.0694
     22 CL        138.3421  143.6429  156.2538 Cl      1  UNL1       -0.0813
     23 C         140.1561  142.9872  157.9945 C.ar    1  UNL1        0.0270
     24 C         141.4095  140.3760  168.4883 C.ar    1  UNL1        0.0031
     25 C         142.2582  140.8044  169.6486 C.ar    1  UNL1        0.0207
     26 C         141.6147  141.1788  170.9507 C.ar    1  UNL1        0.0989
     27 N         140.1223  141.1249  171.0926 N.ar    1  UNL1       -0.2423
     28 C         139.2736  140.6966  169.9324 C.ar    1  UNL1        0.0989
     29 C         139.9172  140.3221  168.6302 C.ar    1  UNL1        0.0207
@<TRIPOS>BOND
     1     1     2    2
     2     2     3   am
     3     3    16    1
     4    16    17   ar
     5    17    18   ar
     6    18    19   ar
     7    19    20    1
     8    19    21   ar
     9    21    22    1
    10    21    23   ar
    11     2     4   am
    12     4     5    1
    13     5     6    1
    14     6     7    1
    15     7     8    1
    16     8     9   ar
    17     9    10   ar
    18    10    11   ar
    19    11    24    1
    20    24    25   ar
    21    25    26   ar
    22    26    27   ar
    23    27    28   ar
    24    28    29   ar
    25    11    12   ar
    26    12    13   ar
    27    13    14    1
    28    23    16   ar
    29    14     4    1
    30    13     8   ar
    31    29    24   ar
    32     3    15    1
@<TRIPOS>MOLECULE
*****
 29 32 0 0 0
SMALL
GASTEIGER

@<TRIPOS>ATOM
      1 O         145.0897  141.8190  160.9730 O.2     1  UNL1       -0.2522
      2 C         143.9032  142.5671  160.4413 C.2     1  UNL1        0.3080
      3 N         143.8565  142.9704  158.9973 N.am    1  UNL1       -0.2681
      4 N         142.7635  142.9117  161.3535 N.am    1  UNL1       -0.2559
      5 C         141.6275  143.6602  160.7215 C.3     1  UNL1        0.1425
      6 C         140.3579  144.1442  161.3571 C.3     1  UNL1        0.2268
      7 O         139.9107  143.9993  162.7814 O.3     1  UNL1       -0.4739
      8 C         140.6226  143.3345  163.9222 C.ar    1  UNL1        0.1362
      9 C         139.8218  143.4126  165.1881 C.ar    1  UNL1        0.0366
     10 C         140.3559  142.8066  166.4521 C.ar    1  UNL1        0.0031
     11 C         141.6909  142.1227  166.4501 C.ar    1  UNL1        0.0000
     12 C         142.4918  142.0446  165.1841 C.ar    1  UNL1        0.0004
     13 C         141.9576  142.6506  163.9202 C.ar    1  UNL1        0.0317
     14 C         142.9104  142.4624  162.7770 C.3     1  UNL1        0.1248
     15 H         143.0778  143.4613  158.6483 H       1  UNL1        0.1564
     16 C         144.9963  142.6257  158.0850 C.ar    1  UNL1        0.0525
     17 C         146.3632  143.1844  158.3485 C.ar    1  UNL1        0.0156
     18 C         147.5029  142.8397  157.4362 C.ar    1  UNL1        0.0135
     19 C         147.2757  141.9362  156.2605 C.ar    1  UNL1        0.0683
     20 CL        148.4155  141.5916  155.3484 Cl      1  UNL1       -0.0814
     21 C         145.9089  141.3775  155.9972 C.ar    1  UNL1        0.0694
     22 CL        145.6817  140.4740  154.8215 Cl      1  UNL1       -0.0813
     23 C         144.7692  141.7222  156.9094 C.ar    1  UNL1        0.0270
     24 C         142.2250  141.5167  167.7140 C.ar    1  UNL1        0.0031
     25 C         143.0292  142.3527  168.6650 C.ar    1  UNL1        0.0207
     26 C         143.5634  141.7468  169.9289 C.ar    1  UNL1        0.0989
     27 N         143.2933  140.3048  170.2419 N.ar    1  UNL1       -0.2423
     28 C         142.4890  139.4688  169.2909 C.ar    1  UNL1        0.0989
     29 C         141.9549  140.0748  168.0269 C.ar    1  UNL1        0.0207
@<TRIPOS>BOND
     1     1     2    2
     2     2     3   am
     3     3    16    1
     4    16    17   ar
     5    17    18   ar
     6    18    19   ar
     7    19    20    1
     8    19    21   ar
     9    21    22    1
    10    21    23   ar
    11     2     4   am
    12     4     5    1
    13     5     6    1
    14     6     7    1
    15     7     8    1
    16     8     9   ar
    17     9    10   ar
    18    10    11   ar
    19    11    24    1
    20    24    25   ar
    21    25    26   ar
    22    26    27   ar
    23    27    28   ar
    24    28    29   ar
    25    11    12   ar
    26    12    13   ar
    27    13    14    1
    28    23    16   ar
    29    14     4    1
    30    13     8   ar
    31    29    24   ar
    32     3    15    1
@<TRIPOS>MOLECULE
*****
 29 32 0 0 0
SMALL
GASTEIGER

@<TRIPOS>ATOM
      1 O         141.7770  141.6194  164.1878 O.2     1  UNL1       -0.2522
      2 C         140.8377  142.7884  164.2231 C.2     1  UNL1        0.3080
      3 N         140.0668  143.0936  165.4731 N.am    1  UNL1       -0.2681
      4 N         140.6693  143.6521  163.0083 N.am    1  UNL1       -0.2559
      5 C         139.7065  144.7937  163.1499 C.3     1  UNL1        0.1425
      6 C         139.3226  145.8252  162.1307 C.3     1  UNL1        0.2268
      7 O         139.8065  145.9698  160.7184 O.3     1  UNL1       -0.4739
      8 C         140.7939  145.1187  159.9763 C.ar    1  UNL1        0.1362
      9 C         140.9978  145.6118  158.5744 C.ar    1  UNL1        0.0366
     10 C         141.9491  144.8990  157.6595 C.ar    1  UNL1        0.0031
     11 C         142.6964  143.6931  158.1465 C.ar    1  UNL1        0.0000
     12 C         142.4925  143.2000  159.5485 C.ar    1  UNL1        0.0004
     13 C         141.5412  143.9128  160.4633 C.ar    1  UNL1        0.0317
     14 C         141.4857  143.2601  161.8127 C.3     1  UNL1        0.1248
     15 H         139.4503  143.8608  165.4962 H       1  UNL1        0.1564
     16 C         140.2352  142.2298  166.6879 C.ar    1  UNL1        0.0525
     17 C         139.6485  140.8496  166.7139 C.ar    1  UNL1        0.0156
     18 C         139.8170  139.9859  167.9287 C.ar    1  UNL1        0.0135
     19 C         140.5721  140.5024  169.1174 C.ar    1  UNL1        0.0683
     20 CL        140.7405  139.6386  170.3321 Cl      1  UNL1       -0.0814
     21 C         141.1588  141.8826  169.0912 C.ar    1  UNL1        0.0694
     22 CL        141.9141  142.3991  170.2800 Cl      1  UNL1       -0.0813
     23 C         140.9904  142.7463  167.8765 C.ar    1  UNL1        0.0270
     24 C         143.6477  142.9802  157.2317 C.ar    1  UNL1        0.0031
     25 C         144.9259  142.4124  157.7736 C.ar    1  UNL1        0.0207
     26 C         145.8772  141.6995  156.8588 C.ar    1  UNL1        0.0989
     27 N         145.5502  141.5545  155.4020 N.ar    1  UNL1       -0.2423
     28 C         144.2720  142.1224  154.8601 C.ar    1  UNL1        0.0989
     29 C         143.3207  142.8352  155.7750 C.ar    1  UNL1        0.0207
@<TRIPOS>BOND
     1     1     2    2
     2     2     3   am
     3     3    16    1
     4    16    17   ar
     5    17    18   ar
     6    18    19   ar
     7    19    20    1
     8    19    21   ar
     9    21    22    1
    10    21    23   ar
    11     2     4   am
    12     4     5    1
    13     5     6    1
    14     6     7    1
    15     7     8    1
    16     8     9   ar
    17     9    10   ar
    18    10    11   ar
    19    11    24    1
    20    24    25   ar
    21    25    26   ar
    22    26    27   ar
    23    27    28   ar
    24    28    29   ar
    25    11    12   ar
    26    12    13   ar
    27    13    14    1
    28    23    16   ar
    29    14     4    1
    30    13     8   ar
    31    29    24   ar
    32     3    15    1
@<TRIPOS>MOLECULE
*****
 29 32 0 0 0
SMALL
GASTEIGER

@<TRIPOS>ATOM
      1 O         139.8386  142.3964  163.7620 O.2     1  UNL1       -0.2522
      2 C         141.3212  142.1748  163.7084 C.2     1  UNL1        0.3080
      3 N         142.0570  141.7235  164.9351 N.am    1  UNL1       -0.2681
      4 N         142.0680  142.4045  162.4279 N.am    1  UNL1       -0.2559
      5 C         143.5460  142.1541  162.4827 C.3     1  UNL1        0.1425
      6 C         144.5591  142.2916  161.3850 C.3     1  UNL1        0.2268
      7 O         144.3444  142.7134  159.9617 O.3     1  UNL1       -0.4739
      8 C         143.0637  143.1019  159.2843 C.ar    1  UNL1        0.1362
      9 C         143.2910  143.4576  157.8450 C.ar    1  UNL1        0.0366
     10 C         142.1359  143.8761  156.9843 C.ar    1  UNL1        0.0031
     11 C         140.7534  143.9387  157.5631 C.ar    1  UNL1        0.0000
     12 C         140.5262  143.5830  159.0025 C.ar    1  UNL1        0.0004
     13 C         141.6813  143.1646  159.8631 C.ar    1  UNL1        0.0317
     14 C         141.2382  142.8542  161.2622 C.3     1  UNL1        0.1248
     15 H         143.0300  141.5781  164.8999 H       1  UNL1        0.1564
     16 C         141.3101  141.4938  166.2156 C.ar    1  UNL1        0.0525
     17 C         140.6739  140.1623  166.4843 C.ar    1  UNL1        0.0156
     18 C         139.9271  139.9327  167.7648 C.ar    1  UNL1        0.0135
     19 C         139.8165  141.0346  168.7765 C.ar    1  UNL1        0.0683
     20 CL        139.0697  140.8048  170.0569 Cl      1  UNL1       -0.0814
     21 C         140.4527  142.3660  168.5078 C.ar    1  UNL1        0.0694
     22 CL        140.3420  143.4680  169.5196 Cl      1  UNL1       -0.0813
     23 C         141.1995  142.5957  167.2274 C.ar    1  UNL1        0.0270
     24 C         139.5983  144.3571  156.7026 C.ar    1  UNL1        0.0031
     25 C         138.4767  143.3979  156.4345 C.ar    1  UNL1        0.0207
     26 C         137.3216  143.8163  155.5739 C.ar    1  UNL1        0.0989
     27 N         137.2880  145.1939  154.9814 N.ar    1  UNL1       -0.2423
     28 C         138.4097  146.1531  155.2494 C.ar    1  UNL1        0.0989
     29 C         139.5648  145.7347  156.1101 C.ar    1  UNL1        0.0207
@<TRIPOS>BOND
     1     1     2    2
     2     2     3   am
     3     3    16    1
     4    16    17   ar
     5    17    18   ar
     6    18    19   ar
     7    19    20    1
     8    19    21   ar
     9    21    22    1
    10    21    23   ar
    11     2     4   am
    12     4     5    1
    13     5     6    1
    14     6     7    1
    15     7     8    1
    16     8     9   ar
    17     9    10   ar
    18    10    11   ar
    19    11    24    1
    20    24    25   ar
    21    25    26   ar
    22    26    27   ar
    23    27    28   ar
    24    28    29   ar
    25    11    12   ar
    26    12    13   ar
    27    13    14    1
    28    23    16   ar
    29    14     4    1
    30    13     8   ar
    31    29    24   ar
    32     3    15    1
@<TRIPOS>MOLECULE
*****
 29 32 0 0 0
SMALL
GASTEIGER

@<TRIPOS>ATOM
      1 O         140.1332  140.3492  160.3763 O.2     1  UNL1       -0.2522
      2 C         139.1150  140.9060  159.4259 C.2     1  UNL1        0.3080
      3 N         138.3067  142.1089  159.8129 N.am    1  UNL1       -0.2681
      4 N         138.9051  140.2599  158.0886 N.am    1  UNL1       -0.2559
      5 C         137.8638  140.8950  157.2153 C.3     1  UNL1        0.1425
      6 C         137.4245  140.4912  155.8390 C.3     1  UNL1        0.2268
      7 O         137.9178  139.3527  154.9963 O.3     1  UNL1       -0.4739
      8 C         138.9724  138.3367  155.3215 C.ar    1  UNL1        0.1362
      9 C         139.1622  137.3642  154.1955 C.ar    1  UNL1        0.0366
     10 C         140.1737  136.2632  154.3177 C.ar    1  UNL1        0.0031
     11 C         140.9954  136.1349  155.5661 C.ar    1  UNL1        0.0000
     12 C         140.8055  137.1075  156.6922 C.ar    1  UNL1        0.0004
     13 C         139.7940  138.2084  156.5699 C.ar    1  UNL1        0.0317
     14 C         139.7640  139.0644  157.8014 C.3     1  UNL1        0.1248
     15 H         137.6384  142.4743  159.1891 H       1  UNL1        0.1564
     16 C         138.5166  142.7550  161.1503 C.ar    1  UNL1        0.0525
     17 C         137.6571  142.3635  162.3156 C.ar    1  UNL1        0.0156
     18 C         137.8670  143.0096  163.6529 C.ar    1  UNL1        0.0135
     19 C         138.9365  144.0472  163.8250 C.ar    1  UNL1        0.0683
     20 CL        139.1464  144.6932  165.1624 Cl      1  UNL1       -0.0814
     21 C         139.7960  144.4386  162.6597 C.ar    1  UNL1        0.0694
     22 CL        140.8655  145.4763  162.8318 Cl      1  UNL1       -0.0813
     23 C         139.5861  143.7926  161.3224 C.ar    1  UNL1        0.0270
     24 C         142.0068  135.0340  155.6884 C.ar    1  UNL1        0.0031
     25 C         142.8871  134.9555  156.9004 C.ar    1  UNL1        0.0207
     26 C         143.8985  133.8547  157.0227 C.ar    1  UNL1        0.0989
     27 N         144.0298  132.8322  155.9330 N.ar    1  UNL1       -0.2423
     28 C         143.1495  132.9107  154.7210 C.ar    1  UNL1        0.0989
     29 C         142.1380  134.0117  154.5987 C.ar    1  UNL1        0.0207
@<TRIPOS>BOND
     1     1     2    2
     2     2     3   am
     3     3    16    1
     4    16    17   ar
     5    17    18   ar
     6    18    19   ar
     7    19    20    1
     8    19    21   ar
     9    21    22    1
    10    21    23   ar
    11     2     4   am
    12     4     5    1
    13     5     6    1
    14     6     7    1
    15     7     8    1
    16     8     9   ar
    17     9    10   ar
    18    10    11   ar
    19    11    24    1
    20    24    25   ar
    21    25    26   ar
    22    26    27   ar
    23    27    28   ar
    24    28    29   ar
    25    11    12   ar
    26    12    13   ar
    27    13    14    1
    28    23    16   ar
    29    14     4    1
    30    13     8   ar
    31    29    24   ar
    32     3    15    1
@<TRIPOS>MOLECULE
*****
 29 32 0 0 0
SMALL
GASTEIGER

@<TRIPOS>ATOM
      1 O         141.1575  139.8465  164.7675 O.2     1  UNL1       -0.2522
      2 C         140.2431  141.0302  164.6542 C.2     1  UNL1        0.3080
      3 N         139.9289  141.8541  165.8675 N.am    1  UNL1       -0.2681
      4 N         139.6429  141.3898  163.3274 N.am    1  UNL1       -0.2559
      5 C         138.7433  142.5902  163.3240 C.3     1  UNL1        0.1425
      6 C         138.0002  143.1988  162.1717 C.3     1  UNL1        0.2268
      7 O         137.9732  142.7573  160.7385 O.3     1  UNL1       -0.4739
      8 C         138.6826  141.5982  160.1033 C.ar    1  UNL1        0.1362
      9 C         138.3830  141.5096  158.6363 C.ar    1  UNL1        0.0366
     10 C         138.9949  140.4170  157.8104 C.ar    1  UNL1        0.0031
     11 C         139.9065  139.4132  158.4517 C.ar    1  UNL1        0.0000
     12 C         140.2061  139.5018  159.9189 C.ar    1  UNL1        0.0004
     13 C         139.5941  140.5943  160.7446 C.ar    1  UNL1        0.0317
     14 C         140.0214  140.5016  162.1795 C.3     1  UNL1        0.1248
     15 H         139.3287  142.6310  165.7931 H       1  UNL1        0.1564
     16 C         140.5291  141.4944  167.1944 C.ar    1  UNL1        0.0525
     17 C         139.8360  140.5100  168.0890 C.ar    1  UNL1        0.0156
     18 C         140.4363  140.1504  169.4158 C.ar    1  UNL1        0.0135
     19 C         141.7297  140.7752  169.8479 C.ar    1  UNL1        0.0683
     20 CL        142.3299  140.4155  171.1747 Cl      1  UNL1       -0.0814
     21 C         142.4228  141.7596  168.9533 C.ar    1  UNL1        0.0694
     22 CL        143.7163  142.3843  169.3854 Cl      1  UNL1       -0.0813
     23 C         141.8225  142.1192  167.6265 C.ar    1  UNL1        0.0270
     24 C         140.5184  138.3207  157.6260 C.ar    1  UNL1        0.0031
     25 C         141.9244  137.8738  157.8968 C.ar    1  UNL1        0.0207
     26 C         142.5364  136.7812  157.0711 C.ar    1  UNL1        0.0989
     27 N         141.7423  136.1356  155.9744 N.ar    1  UNL1       -0.2423
     28 C         140.3363  136.5825  155.7036 C.ar    1  UNL1        0.0989
     29 C         139.7243  137.6750  156.5294 C.ar    1  UNL1        0.0207
@<TRIPOS>BOND
     1     1     2    2
     2     2     3   am
     3     3    16    1
     4    16    17   ar
     5    17    18   ar
     6    18    19   ar
     7    19    20    1
     8    19    21   ar
     9    21    22    1
    10    21    23   ar
    11     2     4   am
    12     4     5    1
    13     5     6    1
    14     6     7    1
    15     7     8    1
    16     8     9   ar
    17     9    10   ar
    18    10    11   ar
    19    11    24    1
    20    24    25   ar
    21    25    26   ar
    22    26    27   ar
    23    27    28   ar
    24    28    29   ar
    25    11    12   ar
    26    12    13   ar
    27    13    14    1
    28    23    16   ar
    29    14     4    1
    30    13     8   ar
    31    29    24   ar
    32     3    15    1
