@<TRIPOS>MOLECULE
*****
 30 34 0 0 0
SMALL
GASTEIGER

@<TRIPOS>ATOM
      1 C         143.0809  142.8607  159.5948 C.ar    1  UNL1        0.1667
      2 N         142.7892  142.4671  161.0125 N.ar    1  UNL1       -0.2221
      3 C         141.8649  143.4934  161.5976 C.ar    1  UNL1        0.1309
      4 C         141.2416  143.6248  162.9556 C.ar    1  UNL1        0.0810
      5 C         140.3388  144.7840  163.2575 C.ar    1  UNL1        0.0895
      6 CL        139.7155  144.9154  164.6157 Cl      1  UNL1       -0.0793
      7 C         140.0592  145.8118  162.2015 C.ar    1  UNL1        0.0863
      8 N         140.6825  145.6805  160.8434 N.ar    1  UNL1       -0.3354
      9 C         141.5853  144.5213  160.5415 C.ar    1  UNL1        0.1613
     10 N         142.3369  144.1302  159.3036 N.ar    1  UNL1       -0.2080
     11 H         140.4990  146.3551  160.1503 H       1  UNL1        0.1675
     12 C         142.8780  139.6840  158.8758 C.3     1  UNL1        0.0541
     13 C         143.8687  140.6555  158.3059 C.ar    1  UNL1        0.0834
     14 N         144.9401  140.3373  157.3055 N.ar    1  UNL1       -0.1735
     15 N         145.6955  141.6008  157.0176 N.ar    1  UNL1       -0.2476
     16 C         146.8523  141.7406  156.0730 C.3     1  UNL1        0.1538
     17 C         145.0910  142.6999  157.8401 C.ar    1  UNL1        0.0994
     18 C         143.9620  142.1156  158.6364 C.ar    1  UNL1        0.0698
     19 N         141.5212  142.5969  164.0118 N.pl3   1  UNL1       -0.3027
     20 C         142.6859  142.7733  164.9404 C.3     1  UNL1        0.1082
     21 C         142.9654  141.7455  165.9965 C.3     1  UNL1        0.0941
     22 N         142.0801  140.5413  166.1241 N.3     1  UNL1       -0.2632
     23 C         140.9154  140.3649  165.1955 C.3     1  UNL1        0.0941
     24 C         140.6359  141.3928  164.1394 C.3     1  UNL1        0.1082
     25 C         142.3596  139.5135  167.1802 C.3     1  UNL1        0.1425
     26 C         142.0610  139.8159  168.6188 C.ar    1  UNL1        0.1970
     27 N         140.6967  139.9140  169.2344 N.ar    1  UNL1       -0.1856
     28 C         140.8669  140.2321  170.6904 C.ar    1  UNL1        0.3161
     29 O         142.3364  140.3306  170.9746 O.2     1  UNL1       -0.3277
     30 N         143.0744  140.0734  169.6943 N.ar    1  UNL1       -0.0586
@<TRIPOS>BOND
     1    12    13    1
     2    13    14   ar
     3    14    15   ar
     4    15    16    1
     5    15    17   ar
     6    17    18   ar
     7    18     1    1
     8     1     2   ar
     9     2     3   ar
    10     3     4   ar
    11     4    19    1
    12    19    20    1
    13    20    21    1
    14    21    22    1
    15    22    25    1
    16    25    26    1
    17    26    27   ar
    18    27    28   ar
    19    28    29   ar
    20    29    30   ar
    21    22    23    1
    22    23    24    1
    23     4     5   ar
    24     5     6    1
    25     5     7   ar
    26     7     8   ar
    27     8     9   ar
    28     9    10   ar
    29    18    13   ar
    30    10     1   ar
    31     9     3    1
    32    24    19    1
    33    30    26   ar
    34     8    11    1
@<TRIPOS>MOLECULE
*****
 30 34 0 0 0
SMALL
GASTEIGER

@<TRIPOS>ATOM
      1 C         143.2830  134.4764  156.3016 C.ar    1  UNL1        0.1667
      2 N         142.6071  135.4276  157.2442 N.ar    1  UNL1       -0.2221
      3 C         143.0595  136.8167  156.9044 C.ar    1  UNL1        0.1309
      4 C         142.7249  138.1541  157.4956 C.ar    1  UNL1        0.0810
      5 C         143.3458  139.3988  156.9341 C.ar    1  UNL1        0.0895
      6 CL        143.0111  140.7362  157.5253 Cl      1  UNL1       -0.0793
      7 C         144.3012  139.3062  155.7815 C.ar    1  UNL1        0.0863
      8 N         144.6358  137.9689  155.1903 N.ar    1  UNL1       -0.3354
      9 C         144.0150  136.7241  155.7517 C.ar    1  UNL1        0.1613
     10 N         144.1531  135.2777  155.3792 N.ar    1  UNL1       -0.2080
     11 H         145.2629  137.9081  154.4338 H       1  UNL1        0.1675
     12 C         145.1435  132.3217  157.8970 C.3     1  UNL1        0.0541
     13 C         143.9730  131.9953  157.0178 C.ar    1  UNL1        0.0834
     14 N         143.4521  130.6211  156.7174 N.ar    1  UNL1       -0.1735
     15 N         142.2749  130.7620  155.7985 N.ar    1  UNL1       -0.2476
     16 C         141.4494  129.6390  155.2445 C.3     1  UNL1        0.1538
     17 C         142.0683  132.2235  155.5309 C.ar    1  UNL1        0.0994
     18 C         143.1177  132.9856  156.2844 C.ar    1  UNL1        0.0698
     19 N         141.7694  138.2467  158.6482 N.pl3   1  UNL1       -0.3027
     20 C         142.2727  138.0983  160.0534 C.3     1  UNL1        0.1082
     21 C         141.3172  138.1910  161.2059 C.3     1  UNL1        0.0941
     22 N         139.8584  138.4321  160.9533 N.3     1  UNL1       -0.2632
     23 C         139.3551  138.5806  159.5481 C.3     1  UNL1        0.0941
     24 C         140.3106  138.4879  158.3955 C.3     1  UNL1        0.1082
     25 C         138.9029  138.5249  162.1058 C.3     1  UNL1        0.1425
     26 C         138.3520  139.8578  162.5180 C.ar    1  UNL1        0.1970
     27 N         138.6082  140.5526  163.8225 N.ar    1  UNL1       -0.1856
     28 C         137.8628  141.8541  163.8088 C.ar    1  UNL1        0.3161
     29 O         137.1459  141.9638  162.4958 O.2     1  UNL1       -0.3277
     30 N         137.4482  140.7301  161.6980 N.ar    1  UNL1       -0.0586
@<TRIPOS>BOND
     1    12    13    1
     2    13    14   ar
     3    14    15   ar
     4    15    16    1
     5    15    17   ar
     6    17    18   ar
     7    18     1    1
     8     1     2   ar
     9     2     3   ar
    10     3     4   ar
    11     4    19    1
    12    19    20    1
    13    20    21    1
    14    21    22    1
    15    22    25    1
    16    25    26    1
    17    26    27   ar
    18    27    28   ar
    19    28    29   ar
    20    29    30   ar
    21    22    23    1
    22    23    24    1
    23     4     5   ar
    24     5     6    1
    25     5     7   ar
    26     7     8   ar
    27     8     9   ar
    28     9    10   ar
    29    18    13   ar
    30    10     1   ar
    31     9     3    1
    32    24    19    1
    33    30    26   ar
    34     8    11    1
@<TRIPOS>MOLECULE
*****
 30 34 0 0 0
SMALL
GASTEIGER

@<TRIPOS>ATOM
      1 C         142.2640  140.0672  160.1668 C.ar    1  UNL1        0.1667
      2 N         142.1589  140.3001  161.6448 N.ar    1  UNL1       -0.2221
      3 C         140.9991  139.4998  162.1588 C.ar    1  UNL1        0.1309
      4 C         140.4209  139.3396  163.5336 C.ar    1  UNL1        0.0810
      5 C         139.2310  138.4517  163.7479 C.ar    1  UNL1        0.0895
      6 CL        138.6528  138.2915  165.1228 Cl      1  UNL1       -0.0793
      7 C         138.6193  137.7243  162.5876 C.ar    1  UNL1        0.0863
      8 N         139.1974  137.8846  161.2128 N.ar    1  UNL1       -0.3354
      9 C         140.3873  138.7723  160.9984 C.ar    1  UNL1        0.1613
     10 N         141.1691  139.1230  159.7672 N.ar    1  UNL1       -0.2080
     11 H         138.7959  137.4071  160.4512 H       1  UNL1        0.1675
     12 C         143.6449  143.0047  160.5044 C.3     1  UNL1        0.0541
     13 C         143.9195  142.0225  159.4045 C.ar    1  UNL1        0.0834
     14 N         144.8771  142.2182  158.2666 N.ar    1  UNL1       -0.1735
     15 N         144.8342  140.9888  157.4081 N.ar    1  UNL1       -0.2476
     16 C         145.6348  140.7558  156.1613 C.3     1  UNL1        0.1538
     17 C         143.8501  140.0334  158.0154 C.ar    1  UNL1        0.0994
     18 C         143.2848  140.6723  159.2492 C.ar    1  UNL1        0.0698
     19 N         141.0326  140.0670  164.6941 N.pl3   1  UNL1       -0.3027
     20 C         140.5586  141.4450  165.0496 C.3     1  UNL1        0.1082
     21 C         141.1704  142.1724  166.2100 C.3     1  UNL1        0.0941
     22 N         142.2561  141.5218  167.0149 N.3     1  UNL1       -0.2632
     23 C         142.7301  140.1438  166.6594 C.3     1  UNL1        0.0941
     24 C         142.1184  139.4164  165.4990 C.3     1  UNL1        0.1082
     25 C         142.8679  142.2492  168.1754 C.3     1  UNL1        0.1425
     26 C         142.2890  142.0896  169.5501 C.ar    1  UNL1        0.1970
     27 N         141.3524  141.0045  169.9918 N.ar    1  UNL1       -0.1856
     28 C         141.0297  141.2314  171.4390 C.ar    1  UNL1        0.3161
     29 O         141.7670  142.4567  171.8916 O.2     1  UNL1       -0.3277
     30 N         142.5453  142.9871  170.7242 N.ar    1  UNL1       -0.0586
@<TRIPOS>BOND
     1    12    13    1
     2    13    14   ar
     3    14    15   ar
     4    15    16    1
     5    15    17   ar
     6    17    18   ar
     7    18     1    1
     8     1     2   ar
     9     2     3   ar
    10     3     4   ar
    11     4    19    1
    12    19    20    1
    13    20    21    1
    14    21    22    1
    15    22    25    1
    16    25    26    1
    17    26    27   ar
    18    27    28   ar
    19    28    29   ar
    20    29    30   ar
    21    22    23    1
    22    23    24    1
    23     4     5   ar
    24     5     6    1
    25     5     7   ar
    26     7     8   ar
    27     8     9   ar
    28     9    10   ar
    29    18    13   ar
    30    10     1   ar
    31     9     3    1
    32    24    19    1
    33    30    26   ar
    34     8    11    1
@<TRIPOS>MOLECULE
*****
 30 34 0 0 0
SMALL
GASTEIGER

@<TRIPOS>ATOM
      1 C         140.7696  141.6616  159.9778 C.ar    1  UNL1        0.1667
      2 N         140.8002  141.5192  161.4707 N.ar    1  UNL1       -0.2221
      3 C         142.0155  142.2360  161.9799 C.ar    1  UNL1        0.1309
      4 C         142.5591  142.4313  163.3642 C.ar    1  UNL1        0.0810
      5 C         143.8233  143.2121  163.5702 C.ar    1  UNL1        0.0895
      6 CL        144.3670  143.4074  164.9546 Cl      1  UNL1       -0.0793
      7 C         144.5437  143.7975  162.3921 C.ar    1  UNL1        0.0863
      8 N         144.0000  143.6023  161.0078 N.ar    1  UNL1       -0.3354
      9 C         142.7360  142.8215  160.8017 C.ar    1  UNL1        0.1613
     10 N         141.9660  142.4665  159.5643 N.ar    1  UNL1       -0.2080
     11 H         144.4729  143.9866  160.2345 H       1  UNL1        0.1675
     12 C         140.5544  138.5576  158.9939 C.3     1  UNL1        0.0541
     13 C         139.6270  139.6713  158.6074 C.ar    1  UNL1        0.0834
     14 N         138.4379  139.5539  157.7006 N.ar    1  UNL1       -0.1735
     15 N         137.8018  140.9080  157.5924 N.ar    1  UNL1       -0.2476
     16 C         136.5837  141.2481  156.7860 C.3     1  UNL1        0.1538
     17 C         138.5980  141.8625  158.4324 C.ar    1  UNL1        0.0994
     18 C         139.7259  141.0981  159.0596 C.ar    1  UNL1        0.0698
     19 N         141.8387  141.8458  164.5425 N.pl3   1  UNL1       -0.3027
     20 C         140.8565  142.6793  165.3109 C.3     1  UNL1        0.1082
     21 C         140.1361  142.0937  166.4891 C.3     1  UNL1        0.0941
     22 N         140.3981  140.6748  166.8989 N.3     1  UNL1       -0.2632
     23 C         141.3803  139.8413  166.1305 C.3     1  UNL1        0.0941
     24 C         142.1006  140.4268  164.9522 C.3     1  UNL1        0.1082
     25 C         139.6777  140.0892  168.0771 C.3     1  UNL1        0.1425
     26 C         140.1306  140.4134  169.4700 C.ar    1  UNL1        0.1970
     27 N         141.2891  141.2921  169.8383 N.ar    1  UNL1       -0.1856
     28 C         141.3789  141.3376  171.3350 C.ar    1  UNL1        0.3161
     29 O         140.2758  140.4871  171.8915 O.2     1  UNL1       -0.3277
     30 N         139.5043  139.9159  170.7389 N.ar    1  UNL1       -0.0586
@<TRIPOS>BOND
     1    12    13    1
     2    13    14   ar
     3    14    15   ar
     4    15    16    1
     5    15    17   ar
     6    17    18   ar
     7    18     1    1
     8     1     2   ar
     9     2     3   ar
    10     3     4   ar
    11     4    19    1
    12    19    20    1
    13    20    21    1
    14    21    22    1
    15    22    25    1
    16    25    26    1
    17    26    27   ar
    18    27    28   ar
    19    28    29   ar
    20    29    30   ar
    21    22    23    1
    22    23    24    1
    23     4     5   ar
    24     5     6    1
    25     5     7   ar
    26     7     8   ar
    27     8     9   ar
    28     9    10   ar
    29    18    13   ar
    30    10     1   ar
    31     9     3    1
    32    24    19    1
    33    30    26   ar
    34     8    11    1
@<TRIPOS>MOLECULE
*****
 30 34 0 0 0
SMALL
GASTEIGER

@<TRIPOS>ATOM
      1 C         141.0891  140.9350  160.1459 C.ar    1  UNL1        0.1667
      2 N         140.7461  140.9885  161.6051 N.ar    1  UNL1       -0.2221
      3 C         140.2634  142.3740  161.9172 C.ar    1  UNL1        0.1309
      4 C         139.7890  143.0084  163.1910 C.ar    1  UNL1        0.0810
      5 C         139.3592  144.4455  163.1983 C.ar    1  UNL1        0.0895
      6 CL        138.8847  145.0799  164.4722 Cl      1  UNL1       -0.0793
      7 C         139.4039  145.2482  161.9321 C.ar    1  UNL1        0.0863
      8 N         139.8784  144.6138  160.6583 N.ar    1  UNL1       -0.3354
      9 C         140.3081  143.1768  160.6509 C.ar    1  UNL1        0.1613
     10 N         140.8184  142.2874  159.5561 N.ar    1  UNL1       -0.2080
     11 H         139.9077  145.1407  159.8272 H       1  UNL1        0.1675
     12 C         143.9091  139.3996  160.7287 C.3     1  UNL1        0.0541
     13 C         142.9074  139.0333  159.6741 C.ar    1  UNL1        0.0834
     14 N         143.0260  137.8970  158.7022 N.ar    1  UNL1       -0.1735
     15 N         141.8031  137.9003  157.8335 N.ar    1  UNL1       -0.2476
     16 C         141.5067  136.9348  156.7246 C.3     1  UNL1        0.1538
     17 C         140.9287  139.0388  158.2687 C.ar    1  UNL1        0.0994
     18 C         141.6112  139.7390  159.4061 C.ar    1  UNL1        0.0698
     19 N         139.7443  142.2057  164.4574 N.pl3   1  UNL1       -0.3027
     20 C         140.7389  142.4702  165.5486 C.3     1  UNL1        0.1082
     21 C         140.6941  141.6675  166.8149 C.3     1  UNL1        0.0941
     22 N         139.6547  140.6003  166.9901 N.3     1  UNL1       -0.2632
     23 C         138.6601  140.3357  165.8989 C.3     1  UNL1        0.0941
     24 C         138.7049  141.1385  164.6326 C.3     1  UNL1        0.1082
     25 C         139.6099  139.7976  168.2564 C.3     1  UNL1        0.1425
     26 C         140.2300  140.3395  169.5102 C.ar    1  UNL1        0.1970
     27 N         141.6755  140.2329  169.8962 N.ar    1  UNL1       -0.1856
     28 C         141.8523  140.9106  171.2227 C.ar    1  UNL1        0.3161
     29 O         140.5160  141.4360  171.6564 O.2     1  UNL1       -0.3277
     30 N         139.5133  141.0830  170.5981 N.ar    1  UNL1       -0.0586
@<TRIPOS>BOND
     1    12    13    1
     2    13    14   ar
     3    14    15   ar
     4    15    16    1
     5    15    17   ar
     6    17    18   ar
     7    18     1    1
     8     1     2   ar
     9     2     3   ar
    10     3     4   ar
    11     4    19    1
    12    19    20    1
    13    20    21    1
    14    21    22    1
    15    22    25    1
    16    25    26    1
    17    26    27   ar
    18    27    28   ar
    19    28    29   ar
    20    29    30   ar
    21    22    23    1
    22    23    24    1
    23     4     5   ar
    24     5     6    1
    25     5     7   ar
    26     7     8   ar
    27     8     9   ar
    28     9    10   ar
    29    18    13   ar
    30    10     1   ar
    31     9     3    1
    32    24    19    1
    33    30    26   ar
    34     8    11    1
@<TRIPOS>MOLECULE
*****
 30 34 0 0 0
SMALL
GASTEIGER

@<TRIPOS>ATOM
      1 C         140.4305  142.0359  160.1972 C.ar    1  UNL1        0.1667
      2 N         140.7156  141.8249  161.6546 N.ar    1  UNL1       -0.2221
      3 C         140.0314  140.5605  162.0825 C.ar    1  UNL1        0.1309
      4 C         139.9615  139.8549  163.4043 C.ar    1  UNL1        0.0810
      5 C         139.1836  138.5788  163.5331 C.ar    1  UNL1        0.0895
      6 CL        139.1137  137.8732  164.8550 Cl      1  UNL1       -0.0793
      7 C         138.4756  138.0084  162.3401 C.ar    1  UNL1        0.0863
      8 N         138.5454  138.7140  161.0183 N.ar    1  UNL1       -0.3354
      9 C         139.3233  139.9900  160.8895 C.ar    1  UNL1        0.1613
     10 N         139.5700  140.9019  159.7243 N.ar    1  UNL1       -0.2080
     11 H         138.0807  138.3396  160.2353 H       1  UNL1        0.1675
     12 C         143.5489  142.8819  159.7398 C.3     1  UNL1        0.0541
     13 C         142.3533  143.5688  159.1494 C.ar    1  UNL1        0.0834
     14 N         142.3812  144.7652  158.2451 N.ar    1  UNL1       -0.1735
     15 N         140.9651  145.1159  157.8964 N.ar    1  UNL1       -0.2476
     16 C         140.5287  146.2474  157.0139 C.3     1  UNL1        0.1538
     17 C         140.0619  144.1360  158.5852 C.ar    1  UNL1        0.0994
     18 C         140.9199  143.1800  159.3596 C.ar    1  UNL1        0.0698
     19 N         140.6695  140.4254  164.5974 N.pl3   1  UNL1       -0.3027
     20 C         139.9652  141.4027  165.4910 C.3     1  UNL1        0.1082
     21 C         140.6733  141.9731  166.6840 C.3     1  UNL1        0.0941
     22 N         142.0856  141.5660  166.9834 N.3     1  UNL1       -0.2632
     23 C         142.7900  140.5886  166.0898 C.3     1  UNL1        0.0941
     24 C         142.0819  140.0183  164.8967 C.3     1  UNL1        0.1082
     25 C         142.7937  142.1364  168.1764 C.3     1  UNL1        0.1425
     26 C         142.2142  141.9583  169.5485 C.ar    1  UNL1        0.1970
     27 N         141.5182  140.7317  170.0593 N.ar    1  UNL1       -0.1856
     28 C         141.1028  140.9909  171.4771 C.ar    1  UNL1        0.3161
     29 O         141.5421  142.3778  171.8426 O.2     1  UNL1       -0.3277
     30 N         142.2289  142.9757  170.6507 N.ar    1  UNL1       -0.0586
@<TRIPOS>BOND
     1    12    13    1
     2    13    14   ar
     3    14    15   ar
     4    15    16    1
     5    15    17   ar
     6    17    18   ar
     7    18     1    1
     8     1     2   ar
     9     2     3   ar
    10     3     4   ar
    11     4    19    1
    12    19    20    1
    13    20    21    1
    14    21    22    1
    15    22    25    1
    16    25    26    1
    17    26    27   ar
    18    27    28   ar
    19    28    29   ar
    20    29    30   ar
    21    22    23    1
    22    23    24    1
    23     4     5   ar
    24     5     6    1
    25     5     7   ar
    26     7     8   ar
    27     8     9   ar
    28     9    10   ar
    29    18    13   ar
    30    10     1   ar
    31     9     3    1
    32    24    19    1
    33    30    26   ar
    34     8    11    1
@<TRIPOS>MOLECULE
*****
 30 34 0 0 0
SMALL
GASTEIGER

@<TRIPOS>ATOM
      1 C         141.2408  141.1641  168.3657 C.ar    1  UNL1        0.1667
      2 N         141.5008  140.7328  166.9528 N.ar    1  UNL1       -0.2221
      3 C         140.3784  139.8325  166.5290 C.ar    1  UNL1        0.1309
      4 C         140.1016  139.1104  165.2437 C.ar    1  UNL1        0.0810
      5 C         138.8710  138.2633  165.1094 C.ar    1  UNL1        0.0895
      6 CL        138.5942  137.5411  163.8241 Cl      1  UNL1       -0.0793
      7 C         137.9173  138.1382  166.2603 C.ar    1  UNL1        0.0863
      8 N         138.1941  138.8602  167.5456 N.ar    1  UNL1       -0.3354
      9 C         139.4247  139.7074  167.6800 C.ar    1  UNL1        0.1613
     10 N         139.9576  140.5304  168.8151 N.ar    1  UNL1       -0.2080
     11 H         137.5681  138.7781  168.3010 H       1  UNL1        0.1675
     12 C         140.2204  143.6726  170.1867 C.3     1  UNL1        0.0541
     13 C         141.6420  143.2231  170.0223 C.ar    1  UNL1        0.0834
     14 N         142.8442  143.8478  170.6662 N.ar    1  UNL1       -0.1735
     15 N         144.0562  143.0809  170.2271 N.ar    1  UNL1       -0.2476
     16 C         145.4726  143.3631  170.6321 C.3     1  UNL1        0.1538
     17 C         143.6031  141.9822  169.3119 C.ar    1  UNL1        0.0994
     18 C         142.1110  142.0701  169.1853 C.ar    1  UNL1        0.0698
     19 N         141.0554  139.2355  164.0927 N.pl3   1  UNL1       -0.3027
     20 C         142.1994  138.2747  163.9588 C.3     1  UNL1        0.1082
     21 C         143.1531  138.3998  162.8078 C.3     1  UNL1        0.0941
     22 N         142.9626  139.4857  161.7907 N.3     1  UNL1       -0.2632
     23 C         141.8186  140.4465  161.9245 C.3     1  UNL1        0.0941
     24 C         140.8649  140.3214  163.0755 C.3     1  UNL1        0.1082
     25 C         143.9163  139.6108  160.6396 C.3     1  UNL1        0.1425
     26 C         143.8137  140.7790  159.7042 C.ar    1  UNL1        0.1970
     27 N         143.2502  140.7488  158.3144 N.ar    1  UNL1       -0.1856
     28 C         143.3448  142.1336  157.7457 C.ar    1  UNL1        0.3161
     29 O         143.9668  143.0196  158.7840 O.2     1  UNL1       -0.3277
     30 N         144.2566  142.1824  159.9944 N.ar    1  UNL1       -0.0586
@<TRIPOS>BOND
     1    12    13    1
     2    13    14   ar
     3    14    15   ar
     4    15    16    1
     5    15    17   ar
     6    17    18   ar
     7    18     1    1
     8     1     2   ar
     9     2     3   ar
    10     3     4   ar
    11     4    19    1
    12    19    20    1
    13    20    21    1
    14    21    22    1
    15    22    25    1
    16    25    26    1
    17    26    27   ar
    18    27    28   ar
    19    28    29   ar
    20    29    30   ar
    21    22    23    1
    22    23    24    1
    23     4     5   ar
    24     5     6    1
    25     5     7   ar
    26     7     8   ar
    27     8     9   ar
    28     9    10   ar
    29    18    13   ar
    30    10     1   ar
    31     9     3    1
    32    24    19    1
    33    30    26   ar
    34     8    11    1
@<TRIPOS>MOLECULE
*****
 30 34 0 0 0
SMALL
GASTEIGER

@<TRIPOS>ATOM
      1 C         140.2057  142.2475  166.1636 C.ar    1  UNL1        0.1667
      2 N         140.5931  141.7134  164.8165 N.ar    1  UNL1       -0.2221
      3 C         140.3864  142.8047  163.8083 C.ar    1  UNL1        0.1309
      4 C         140.6007  142.8540  162.3245 C.ar    1  UNL1        0.0810
      5 C         140.2998  144.1120  161.5648 C.ar    1  UNL1        0.0895
      6 CL        140.5141  144.1614  160.0809 Cl      1  UNL1       -0.0793
      7 C         139.7848  145.3204  162.2888 C.ar    1  UNL1        0.0863
      8 N         139.5705  145.2711  163.7725 N.ar    1  UNL1       -0.3354
      9 C         139.8713  144.0132  164.5323 C.ar    1  UNL1        0.1613
     10 N         139.7596  143.6688  165.9880 N.ar    1  UNL1       -0.2080
     11 H         139.2324  146.0642  164.2477 H       1  UNL1        0.1675
     12 C         138.7519  139.3909  166.7764 C.3     1  UNL1        0.0541
     13 C         139.5874  140.1797  167.7406 C.ar    1  UNL1        0.0834
     14 N         139.9014  139.7940  169.1557 N.ar    1  UNL1       -0.1735
     15 N         140.7637  140.8686  169.7487 N.ar    1  UNL1       -0.2476
     16 C         141.3109  140.8897  171.1451 C.3     1  UNL1        0.1538
     17 C         140.9826  141.9186  168.7000 C.ar    1  UNL1        0.0994
     18 C         140.2557  141.4928  167.4589 C.ar    1  UNL1        0.0698
     19 N         141.1158  141.6455  161.6004 N.pl3   1  UNL1       -0.3027
     20 C         140.1594  140.5938  161.1217 C.3     1  UNL1        0.1082
     21 C         140.6746  139.3854  160.3977 C.3     1  UNL1        0.0941
     22 N         142.1461  139.2287  160.1523 N.3     1  UNL1       -0.2632
     23 C         143.1024  140.2805  160.6310 C.3     1  UNL1        0.0941
     24 C         142.5873  141.4889  161.3551 C.3     1  UNL1        0.1082
     25 C         142.6613  138.0203  159.4282 C.3     1  UNL1        0.1425
     26 C         142.5497  137.9367  157.9346 C.ar    1  UNL1        0.1970
     27 N         143.6056  138.3381  156.9478 N.ar    1  UNL1       -0.1856
     28 C         143.0710  138.0865  155.5690 C.ar    1  UNL1        0.3161
     29 O         141.6849  137.5295  155.7038 O.2     1  UNL1       -0.3277
     30 N         141.3626  137.4369  157.1658 N.ar    1  UNL1       -0.0586
@<TRIPOS>BOND
     1    12    13    1
     2    13    14   ar
     3    14    15   ar
     4    15    16    1
     5    15    17   ar
     6    17    18   ar
     7    18     1    1
     8     1     2   ar
     9     2     3   ar
    10     3     4   ar
    11     4    19    1
    12    19    20    1
    13    20    21    1
    14    21    22    1
    15    22    25    1
    16    25    26    1
    17    26    27   ar
    18    27    28   ar
    19    28    29   ar
    20    29    30   ar
    21    22    23    1
    22    23    24    1
    23     4     5   ar
    24     5     6    1
    25     5     7   ar
    26     7     8   ar
    27     8     9   ar
    28     9    10   ar
    29    18    13   ar
    30    10     1   ar
    31     9     3    1
    32    24    19    1
    33    30    26   ar
    34     8    11    1
@<TRIPOS>MOLECULE
*****
 30 34 0 0 0
SMALL
GASTEIGER

@<TRIPOS>ATOM
      1 C         141.1508  141.3872  167.6718 C.ar    1  UNL1        0.1667
      2 N         140.8768  141.9273  166.2995 N.ar    1  UNL1       -0.2221
      3 C         140.0385  140.9233  165.5651 C.ar    1  UNL1        0.1309
      4 C         139.4660  140.9160  164.1787 C.ar    1  UNL1        0.0810
      5 C         138.6493  139.7480  163.7108 C.ar    1  UNL1        0.0895
      6 CL        138.0766  139.7407  162.3243 Cl      1  UNL1       -0.0793
      7 C         138.4052  138.5875  164.6291 C.ar    1  UNL1        0.0863
      8 N         138.9778  138.5948  166.0155 N.ar    1  UNL1       -0.3354
      9 C         139.7944  139.7627  166.4835 C.ar    1  UNL1        0.1613
     10 N         140.4819  140.0494  167.7855 N.ar    1  UNL1       -0.2080
     11 H         138.8176  137.8331  166.6183 H       1  UNL1        0.1675
     12 C         139.9477  142.9116  170.2944 C.3     1  UNL1        0.0541
     13 C         141.3998  142.7663  169.9479 C.ar    1  UNL1        0.0834
     14 N         142.5539  143.2964  170.7461 N.ar    1  UNL1       -0.1735
     15 N         143.8203  142.9232  170.0339 N.ar    1  UNL1       -0.2476
     16 C         145.2135  143.2528  170.4815 C.3     1  UNL1        0.1538
     17 C         143.4488  142.1626  168.7955 C.ar    1  UNL1        0.0994
     18 C         141.9529  142.0657  168.7424 C.ar    1  UNL1        0.0698
     19 N         139.7100  142.0766  163.2602 N.pl3   1  UNL1       -0.3027
     20 C         138.7634  143.2401  163.2541 C.3     1  UNL1        0.1082
     21 C         139.0076  144.4007  162.3356 C.3     1  UNL1        0.0941
     22 N         140.1982  144.3975  161.4233 N.3     1  UNL1       -0.2632
     23 C         141.1448  143.2340  161.4294 C.3     1  UNL1        0.0941
     24 C         140.9007  142.0735  162.3479 C.3     1  UNL1        0.1082
     25 C         140.4423  145.5581  160.5048 C.3     1  UNL1        0.1425
     26 C         140.8310  145.3153  159.0764 C.ar    1  UNL1        0.1970
     27 N         140.0327  144.5492  158.0635 N.ar    1  UNL1       -0.1856
     28 C         140.7945  144.5564  156.7714 C.ar    1  UNL1        0.3161
     29 O         142.0634  145.3269  156.9857 O.2     1  UNL1       -0.3277
     30 N         142.0860  145.7959  158.4103 N.ar    1  UNL1       -0.0586
@<TRIPOS>BOND
     1    12    13    1
     2    13    14   ar
     3    14    15   ar
     4    15    16    1
     5    15    17   ar
     6    17    18   ar
     7    18     1    1
     8     1     2   ar
     9     2     3   ar
    10     3     4   ar
    11     4    19    1
    12    19    20    1
    13    20    21    1
    14    21    22    1
    15    22    25    1
    16    25    26    1
    17    26    27   ar
    18    27    28   ar
    19    28    29   ar
    20    29    30   ar
    21    22    23    1
    22    23    24    1
    23     4     5   ar
    24     5     6    1
    25     5     7   ar
    26     7     8   ar
    27     8     9   ar
    28     9    10   ar
    29    18    13   ar
    30    10     1   ar
    31     9     3    1
    32    24    19    1
    33    30    26   ar
    34     8    11    1
