@<TRIPOS>MOLECULE
*****
 30 33 0 0 0
SMALL
GASTEIGER

@<TRIPOS>ATOM
      1 N         141.6835  139.4216  163.6149 N.pl3   1  UNL1       -0.2905
      2 C         142.3318  138.8088  164.8208 C.3     1  UNL1        0.0926
      3 C         142.0311  139.3463  166.1885 C.3     1  UNL1        0.0273
      4 C         141.0819  140.4966  166.3503 C.3     1  UNL1        0.0422
      5 C         140.4336  141.1093  165.1444 C.3     1  UNL1        0.0750
      6 N         139.4844  142.2595  165.3062 N.3     1  UNL1       -0.3206
      7 C         140.7344  140.5717  163.7767 C.3     1  UNL1        0.1079
      8 H         139.1407  142.5480  164.3903 H       1  UNL1        0.1189
      9 H         139.9688  143.0403  165.7490 H       1  UNL1        0.1189
     10 C         142.1584  136.8305  155.6895 C.3     1  UNL1        0.0523
     11 C         141.8575  137.3680  157.0573 C.ar    1  UNL1        0.0658
     12 C         140.5275  138.0020  157.3381 C.ar    1  UNL1        0.0773
     13 C         140.2266  138.5396  158.7057 C.ar    1  UNL1        0.2830
     14 O         138.8965  139.1736  158.9865 O.2     1  UNL1       -0.2651
     15 N         141.2559  138.4430  159.7927 N.ar    1  UNL1       -0.1755
     16 N         140.9550  138.9806  161.1603 N.ar    1  UNL1       -0.1461
     17 C         141.9843  138.8840  162.2472 C.ar    1  UNL1        0.1521
     18 C         143.3144  138.2500  161.9663 C.ar    1  UNL1        0.0392
     19 C         143.6152  137.7125  160.5987 C.ar    1  UNL1        0.0418
     20 C         142.5860  137.8090  159.5119 C.ar    1  UNL1        0.1667
     21 N         142.8868  137.2715  158.1441 N.ar    1  UNL1       -0.2306
     22 C         140.7811  141.0340  167.7180 C.ar    1  UNL1        0.0087
     23 C         141.6318  142.1243  168.2992 C.ar    1  UNL1        0.0300
     24 C         141.3310  142.6617  169.6669 C.ar    1  UNL1        0.1672
     25 F         142.1816  143.7520  170.2481 F       1  UNL1       -0.2018
     26 C         140.1795  142.1089  170.4535 C.ar    1  UNL1        0.1696
     27 F         139.8788  142.6464  171.8212 F       1  UNL1       -0.2017
     28 C         139.3289  141.0187  169.8723 C.ar    1  UNL1        0.0612
     29 C         139.6297  140.4812  168.5046 C.ar    1  UNL1        0.1386
     30 F         138.7791  139.3910  167.9234 F       1  UNL1       -0.2044
@<TRIPOS>BOND
     1    10    11    1
     2    11    12   ar
     3    12    13   ar
     4    13    14    2
     5    13    15   ar
     6    15    16   ar
     7    16    17   ar
     8    17     1    1
     9     1     2    1
    10     2     3    1
    11     3     4    1
    12     4    22    1
    13    22    23   ar
    14    23    24   ar
    15    24    25    1
    16    24    26   ar
    17    26    27    1
    18    26    28   ar
    19    28    29   ar
    20    29    30    1
    21     4     5    1
    22     5     6    1
    23     5     7    1
    24    17    18   ar
    25    18    19   ar
    26    19    20   ar
    27    20    21   ar
    28    21    11   ar
    29    20    15   ar
    30     7     1    1
    31    29    22   ar
    32     6     8    1
    33     6     9    1
@<TRIPOS>MOLECULE
*****
 30 33 0 0 0
SMALL
GASTEIGER

@<TRIPOS>ATOM
      1 N         142.6871  142.6256  162.7848 N.pl3   1  UNL1       -0.2905
      2 C         143.9990  142.3409  163.4540 C.3     1  UNL1        0.0926
      3 C         144.0312  141.9236  164.8944 C.3     1  UNL1        0.0273
      4 C         142.7515  141.7911  165.6657 C.3     1  UNL1        0.0422
      5 C         141.4396  142.0759  164.9965 C.3     1  UNL1        0.0750
      6 N         140.1599  141.9433  165.7677 N.3     1  UNL1       -0.3206
      7 C         141.4074  142.4931  163.5560 C.3     1  UNL1        0.1079
      8 H         139.3723  142.1732  165.1616 H       1  UNL1        0.1189
      9 H         140.1745  142.5819  166.5630 H       1  UNL1        0.1189
     10 C         141.5086  145.7088  155.1130 C.3     1  UNL1        0.0523
     11 C         141.5408  145.2916  156.5535 C.ar    1  UNL1        0.0658
     12 C         140.5552  145.8712  157.5244 C.ar    1  UNL1        0.0773
     13 C         140.5874  145.4540  158.9648 C.ar    1  UNL1        0.2830
     14 O         139.6018  146.0337  159.9358 O.2     1  UNL1       -0.2651
     15 N         141.6051  144.4570  159.4344 N.ar    1  UNL1       -0.1755
     16 N         141.6372  144.0398  160.8748 N.ar    1  UNL1       -0.1461
     17 C         142.6549  143.0429  161.3443 C.ar    1  UNL1        0.1521
     18 C         143.6404  142.4632  160.3734 C.ar    1  UNL1        0.0392
     19 C         143.6083  142.8805  158.9330 C.ar    1  UNL1        0.0418
     20 C         142.5906  143.8774  158.4635 C.ar    1  UNL1        0.1667
     21 N         142.5584  144.2946  157.0230 N.ar    1  UNL1       -0.2306
     22 C         142.7837  141.3738  167.1061 C.ar    1  UNL1        0.0087
     23 C         143.0911  142.3829  168.1725 C.ar    1  UNL1        0.0300
     24 C         143.1234  141.9656  169.6129 C.ar    1  UNL1        0.1672
     25 F         143.4308  142.9746  170.6794 F       1  UNL1       -0.2018
     26 C         142.8481  140.5392  169.9870 C.ar    1  UNL1        0.1696
     27 F         142.8803  140.1220  171.4274 F       1  UNL1       -0.2017
     28 C         142.5407  139.5302  168.9205 C.ar    1  UNL1        0.0612
     29 C         142.5084  139.9475  167.4800 C.ar    1  UNL1        0.1386
     30 F         142.2010  138.9385  166.4136 F       1  UNL1       -0.2044
@<TRIPOS>BOND
     1    10    11    1
     2    11    12   ar
     3    12    13   ar
     4    13    14    2
     5    13    15   ar
     6    15    16   ar
     7    16    17   ar
     8    17     1    1
     9     1     2    1
    10     2     3    1
    11     3     4    1
    12     4    22    1
    13    22    23   ar
    14    23    24   ar
    15    24    25    1
    16    24    26   ar
    17    26    27    1
    18    26    28   ar
    19    28    29   ar
    20    29    30    1
    21     4     5    1
    22     5     6    1
    23     5     7    1
    24    17    18   ar
    25    18    19   ar
    26    19    20   ar
    27    20    21   ar
    28    21    11   ar
    29    20    15   ar
    30     7     1    1
    31    29    22   ar
    32     6     8    1
    33     6     9    1
@<TRIPOS>MOLECULE
*****
 30 33 0 0 0
SMALL
GASTEIGER

@<TRIPOS>ATOM
      1 N         142.3268  139.3930  162.8161 N.pl3   1  UNL1       -0.2905
      2 C         142.0320  138.1757  163.6414 C.3     1  UNL1        0.0926
      3 C         141.7123  138.3178  165.0999 C.3     1  UNL1        0.0273
      4 C         141.6873  139.6773  165.7333 C.3     1  UNL1        0.0422
      5 C         141.9820  140.8947  164.9080 C.3     1  UNL1        0.0750
      6 N         141.9570  142.2542  165.5413 N.3     1  UNL1       -0.3206
      7 C         142.3018  140.7525  163.4494 C.3     1  UNL1        0.1079
      8 H         142.1788  142.9603  164.8395 H       1  UNL1        0.1189
      9 H         142.6467  142.2924  166.2918 H       1  UNL1        0.1189
     10 C         144.5966  139.8053  154.7893 C.3     1  UNL1        0.0523
     11 C         144.2768  139.9474  156.2480 C.ar    1  UNL1        0.0658
     12 C         144.6281  141.2128  156.9729 C.ar    1  UNL1        0.0773
     13 C         144.3083  141.3550  158.4315 C.ar    1  UNL1        0.2830
     14 O         144.6596  142.6203  159.1564 O.2     1  UNL1       -0.2651
     15 N         143.6373  140.2318  159.1652 N.ar    1  UNL1       -0.1755
     16 N         143.3176  140.3740  160.6238 N.ar    1  UNL1       -0.1461
     17 C         142.6466  139.2509  161.3574 C.ar    1  UNL1        0.1521
     18 C         142.2953  137.9855  160.6325 C.ar    1  UNL1        0.0392
     19 C         142.6150  137.8433  159.1739 C.ar    1  UNL1        0.0418
     20 C         143.2860  138.9665  158.4403 C.ar    1  UNL1        0.1667
     21 N         143.6058  138.8243  156.9816 N.ar    1  UNL1       -0.2306
     22 C         141.3675  139.8194  167.1919 C.ar    1  UNL1        0.0087
     23 C         142.4572  139.6906  168.2146 C.ar    1  UNL1        0.0300
     24 C         142.1374  139.8327  169.6732 C.ar    1  UNL1        0.1672
     25 F         143.2271  139.7039  170.6960 F       1  UNL1       -0.2018
     26 C         140.7279  140.1037  170.1091 C.ar    1  UNL1        0.1696
     27 F         140.4082  140.2458  171.5677 F       1  UNL1       -0.2017
     28 C         139.6382  140.2325  169.0864 C.ar    1  UNL1        0.0612
     29 C         139.9581  140.0904  167.6277 C.ar    1  UNL1        0.1386
     30 F         138.8684  140.2192  166.6050 F       1  UNL1       -0.2044
@<TRIPOS>BOND
     1    10    11    1
     2    11    12   ar
     3    12    13   ar
     4    13    14    2
     5    13    15   ar
     6    15    16   ar
     7    16    17   ar
     8    17     1    1
     9     1     2    1
    10     2     3    1
    11     3     4    1
    12     4    22    1
    13    22    23   ar
    14    23    24   ar
    15    24    25    1
    16    24    26   ar
    17    26    27    1
    18    26    28   ar
    19    28    29   ar
    20    29    30    1
    21     4     5    1
    22     5     6    1
    23     5     7    1
    24    17    18   ar
    25    18    19   ar
    26    19    20   ar
    27    20    21   ar
    28    21    11   ar
    29    20    15   ar
    30     7     1    1
    31    29    22   ar
    32     6     8    1
    33     6     9    1
@<TRIPOS>MOLECULE
*****
 30 33 0 0 0
SMALL
GASTEIGER

@<TRIPOS>ATOM
      1 N         139.6920  140.1176  163.0733 N.pl3   1  UNL1       -0.2905
      2 C         138.7502  141.0994  163.7051 C.3     1  UNL1        0.0926
      3 C         138.8663  141.4162  165.1666 C.3     1  UNL1        0.0273
      4 C         139.9243  140.7512  165.9965 C.3     1  UNL1        0.0422
      5 C         140.8661  139.7694  165.3647 C.3     1  UNL1        0.0750
      6 N         141.9240  139.1044  166.1945 N.3     1  UNL1       -0.3206
      7 C         140.7499  139.4526  163.9031 C.3     1  UNL1        0.1079
      8 H         142.4694  138.4730  165.6078 H       1  UNL1        0.1189
      9 H         141.4832  138.5744  166.9463 H       1  UNL1        0.1189
     10 C         140.2268  137.8194  155.0619 C.3     1  UNL1        0.0523
     11 C         140.3430  138.1362  156.5235 C.ar    1  UNL1        0.0658
     12 C         141.5749  137.7388  157.2814 C.ar    1  UNL1        0.0773
     13 C         141.6911  138.0555  158.7430 C.ar    1  UNL1        0.2830
     14 O         142.9230  137.6581  159.5009 O.2     1  UNL1       -0.2651
     15 N         140.5753  138.7698  159.4466 N.ar    1  UNL1       -0.1755
     16 N         140.6915  139.0866  160.9081 N.ar    1  UNL1       -0.1461
     17 C         139.5758  139.8008  161.6117 C.ar    1  UNL1        0.1521
     18 C         138.3440  140.1982  160.8538 C.ar    1  UNL1        0.0392
     19 C         138.2278  139.8815  159.3922 C.ar    1  UNL1        0.0418
     20 C         139.3435  139.1673  158.6887 C.ar    1  UNL1        0.1667
     21 N         139.2273  138.8505  157.2271 N.ar    1  UNL1       -0.2306
     22 C         140.0404  141.0680  167.4580 C.ar    1  UNL1        0.0087
     23 C         140.9231  142.1918  167.9140 C.ar    1  UNL1        0.0300
     24 C         141.0392  142.5086  169.3755 C.ar    1  UNL1        0.1672
     25 F         141.9219  143.6324  169.8315 F       1  UNL1       -0.2018
     26 C         140.2726  141.7016  170.3811 C.ar    1  UNL1        0.1696
     27 F         140.3887  142.0185  171.8426 F       1  UNL1       -0.2017
     28 C         139.3899  140.5778  169.9251 C.ar    1  UNL1        0.0612
     29 C         139.2738  140.2610  168.4635 C.ar    1  UNL1        0.1386
     30 F         138.3911  139.1373  168.0075 F       1  UNL1       -0.2044
@<TRIPOS>BOND
     1    10    11    1
     2    11    12   ar
     3    12    13   ar
     4    13    14    2
     5    13    15   ar
     6    15    16   ar
     7    16    17   ar
     8    17     1    1
     9     1     2    1
    10     2     3    1
    11     3     4    1
    12     4    22    1
    13    22    23   ar
    14    23    24   ar
    15    24    25    1
    16    24    26   ar
    17    26    27    1
    18    26    28   ar
    19    28    29   ar
    20    29    30    1
    21     4     5    1
    22     5     6    1
    23     5     7    1
    24    17    18   ar
    25    18    19   ar
    26    19    20   ar
    27    20    21   ar
    28    21    11   ar
    29    20    15   ar
    30     7     1    1
    31    29    22   ar
    32     6     8    1
    33     6     9    1
@<TRIPOS>MOLECULE
*****
 30 33 0 0 0
SMALL
GASTEIGER

@<TRIPOS>ATOM
      1 N         139.5582  141.5992  163.0237 N.pl3   1  UNL1       -0.2905
      2 C         140.1471  142.9409  163.3450 C.3     1  UNL1        0.0926
      3 C         140.7065  143.2067  164.7111 C.3     1  UNL1        0.0273
      4 C         140.6771  142.1309  165.7560 C.3     1  UNL1        0.0422
      5 C         140.0882  140.7893  165.4348 C.3     1  UNL1        0.0750
      6 N         140.0587  139.7135  166.4796 N.3     1  UNL1       -0.3206
      7 C         139.5287  140.5234  164.0686 C.3     1  UNL1        0.1079
      8 H         139.6270  138.8746  166.0919 H       1  UNL1        0.1189
      9 H         139.5177  140.0342  167.2827 H       1  UNL1        0.1189
     10 C         137.0178  141.2378  155.0760 C.3     1  UNL1        0.0523
     11 C         137.5772  141.5036  156.4422 C.ar    1  UNL1        0.0658
     12 C         138.3934  142.7372  156.6914 C.ar    1  UNL1        0.0773
     13 C         138.9528  143.0030  158.0575 C.ar    1  UNL1        0.2830
     14 O         139.7689  144.2367  158.3067 O.2     1  UNL1       -0.2651
     15 N         138.6961  142.0353  159.1745 N.ar    1  UNL1       -0.1755
     16 N         139.2555  142.3011  160.5406 N.ar    1  UNL1       -0.1461
     17 C         138.9988  141.3334  161.6575 C.ar    1  UNL1        0.1521
     18 C         138.1826  140.0998  161.4083 C.ar    1  UNL1        0.0392
     19 C         137.6232  139.8339  160.0422 C.ar    1  UNL1        0.0418
     20 C         137.8799  140.8017  158.9253 C.ar    1  UNL1        0.1667
     21 N         137.3205  140.5358  157.5591 N.ar    1  UNL1       -0.2306
     22 C         141.2365  142.3968  167.1222 C.ar    1  UNL1        0.0087
     23 C         140.3591  142.9756  168.1923 C.ar    1  UNL1        0.0300
     24 C         140.9185  143.2415  169.5584 C.ar    1  UNL1        0.1672
     25 F         140.0412  143.8203  170.6285 F       1  UNL1       -0.2018
     26 C         142.3554  142.9285  169.8544 C.ar    1  UNL1        0.1696
     27 F         142.9148  143.1944  171.2206 F       1  UNL1       -0.2017
     28 C         143.2328  142.3497  168.7843 C.ar    1  UNL1        0.0612
     29 C         142.6733  142.0838  167.4181 C.ar    1  UNL1        0.1386
     30 F         143.5506  141.5050  166.3480 F       1  UNL1       -0.2044
@<TRIPOS>BOND
     1    10    11    1
     2    11    12   ar
     3    12    13   ar
     4    13    14    2
     5    13    15   ar
     6    15    16   ar
     7    16    17   ar
     8    17     1    1
     9     1     2    1
    10     2     3    1
    11     3     4    1
    12     4    22    1
    13    22    23   ar
    14    23    24   ar
    15    24    25    1
    16    24    26   ar
    17    26    27    1
    18    26    28   ar
    19    28    29   ar
    20    29    30    1
    21     4     5    1
    22     5     6    1
    23     5     7    1
    24    17    18   ar
    25    18    19   ar
    26    19    20   ar
    27    20    21   ar
    28    21    11   ar
    29    20    15   ar
    30     7     1    1
    31    29    22   ar
    32     6     8    1
    33     6     9    1
@<TRIPOS>MOLECULE
*****
 30 33 0 0 0
SMALL
GASTEIGER

@<TRIPOS>ATOM
      1 N         141.6104  139.3167  163.2920 N.pl3   1  UNL1       -0.2905
      2 C         142.1871  138.5734  164.4603 C.3     1  UNL1        0.0926
      3 C         141.9620  139.0774  165.8550 C.3     1  UNL1        0.0273
      4 C         141.1601  140.3248  166.0815 C.3     1  UNL1        0.0422
      5 C         140.5834  141.0680  164.9131 C.3     1  UNL1        0.0750
      6 N         139.7815  142.3153  165.1395 N.3     1  UNL1       -0.3206
      7 C         140.8086  140.5640  163.5184 C.3     1  UNL1        0.1079
      8 H         139.4697  142.6866  164.2421 H       1  UNL1        0.1189
      9 H         140.3596  143.0100  165.6125 H       1  UNL1        0.1189
     10 C         141.6752  136.9795  155.2742 C.3     1  UNL1        0.0523
     11 C         141.4500  137.4836  156.6690 C.ar    1  UNL1        0.0658
     12 C         140.1636  138.1708  157.0195 C.ar    1  UNL1        0.0773
     13 C         139.9384  138.6749  158.4142 C.ar    1  UNL1        0.2830
     14 O         138.6520  139.3621  158.7647 O.2     1  UNL1       -0.2651
     15 N         140.9996  138.4917  159.4584 N.ar    1  UNL1       -0.1755
     16 N         140.7744  138.9958  160.8531 N.ar    1  UNL1       -0.1461
     17 C         141.8356  138.8126  161.8972 C.ar    1  UNL1        0.1521
     18 C         143.1220  138.1254  161.5467 C.ar    1  UNL1        0.0392
     19 C         143.3472  137.6213  160.1520 C.ar    1  UNL1        0.0418
     20 C         142.2860  137.8045  159.1079 C.ar    1  UNL1        0.1667
     21 N         142.5112  137.3004  157.7131 N.ar    1  UNL1       -0.2306
     22 C         140.9349  140.8288  167.4762 C.ar    1  UNL1        0.0087
     23 C         139.7094  140.4137  168.2349 C.ar    1  UNL1        0.0300
     24 C         139.4842  140.9177  169.6296 C.ar    1  UNL1        0.1672
     25 F         138.2587  140.5027  170.3884 F       1  UNL1       -0.2018
     26 C         140.4847  141.8368  170.2656 C.ar    1  UNL1        0.1696
     27 F         140.2595  142.3408  171.6603 F       1  UNL1       -0.2017
     28 C         141.7102  142.2519  169.5069 C.ar    1  UNL1        0.0612
     29 C         141.9353  141.7478  168.1121 C.ar    1  UNL1        0.1386
     30 F         143.1609  142.1629  167.3533 F       1  UNL1       -0.2044
@<TRIPOS>BOND
     1    10    11    1
     2    11    12   ar
     3    12    13   ar
     4    13    14    2
     5    13    15   ar
     6    15    16   ar
     7    16    17   ar
     8    17     1    1
     9     1     2    1
    10     2     3    1
    11     3     4    1
    12     4    22    1
    13    22    23   ar
    14    23    24   ar
    15    24    25    1
    16    24    26   ar
    17    26    27    1
    18    26    28   ar
    19    28    29   ar
    20    29    30    1
    21     4     5    1
    22     5     6    1
    23     5     7    1
    24    17    18   ar
    25    18    19   ar
    26    19    20   ar
    27    20    21   ar
    28    21    11   ar
    29    20    15   ar
    30     7     1    1
    31    29    22   ar
    32     6     8    1
    33     6     9    1
@<TRIPOS>MOLECULE
*****
 30 33 0 0 0
SMALL
GASTEIGER

@<TRIPOS>ATOM
      1 N         140.2772  143.0251  162.3193 N.pl3   1  UNL1       -0.2905
      2 C         140.8276  144.2013  163.0700 C.3     1  UNL1        0.0926
      3 C         141.1761  144.0674  164.5228 C.3     1  UNL1        0.0273
      4 C         140.9741  142.7573  165.2249 C.3     1  UNL1        0.0422
      5 C         140.4237  141.5811  164.4742 C.3     1  UNL1        0.0750
      6 N         140.2217  140.2711  165.1763 N.3     1  UNL1       -0.3206
      7 C         140.0752  141.7150  163.0213 C.3     1  UNL1        0.1079
      8 H         139.8432  139.5883  164.5198 H       1  UNL1        0.1189
      9 H         139.5690  140.3970  165.9499 H       1  UNL1        0.1189
     10 C         139.3051  144.6413  154.1833 C.3     1  UNL1        0.0523
     11 C         139.6536  144.5074  155.6362 C.ar    1  UNL1        0.0658
     12 C         140.7724  145.3203  156.2171 C.ar    1  UNL1        0.0773
     13 C         141.1208  145.1865  157.6699 C.ar    1  UNL1        0.2830
     14 O         142.2396  145.9994  158.2508 O.2     1  UNL1       -0.2651
     15 N         140.3505  144.2396  158.5418 N.ar    1  UNL1       -0.1755
     16 N         140.6990  144.1058  159.9946 N.ar    1  UNL1       -0.1461
     17 C         139.9287  143.1590  160.8664 C.ar    1  UNL1        0.1521
     18 C         138.8099  142.3460  160.2855 C.ar    1  UNL1        0.0392
     19 C         138.4614  142.4799  158.8327 C.ar    1  UNL1        0.0418
     20 C         139.2317  143.4267  157.9609 C.ar    1  UNL1        0.1667
     21 N         138.8833  143.5606  156.5080 N.ar    1  UNL1       -0.2306
     22 C         141.3226  142.6235  166.6777 C.ar    1  UNL1        0.0087
     23 C         140.2772  142.8679  167.7253 C.ar    1  UNL1        0.0300
     24 C         140.6257  142.7340  169.1781 C.ar    1  UNL1        0.1672
     25 F         139.5804  142.9785  170.2257 F       1  UNL1       -0.2018
     26 C         142.0196  142.3557  169.5833 C.ar    1  UNL1        0.1696
     27 F         142.3680  142.2219  171.0361 F       1  UNL1       -0.2017
     28 C         143.0649  142.1113  168.5357 C.ar    1  UNL1        0.0612
     29 C         142.7164  142.2452  167.0828 C.ar    1  UNL1        0.1386
     30 F         143.7617  142.0007  166.0352 F       1  UNL1       -0.2044
@<TRIPOS>BOND
     1    10    11    1
     2    11    12   ar
     3    12    13   ar
     4    13    14    2
     5    13    15   ar
     6    15    16   ar
     7    16    17   ar
     8    17     1    1
     9     1     2    1
    10     2     3    1
    11     3     4    1
    12     4    22    1
    13    22    23   ar
    14    23    24   ar
    15    24    25    1
    16    24    26   ar
    17    26    27    1
    18    26    28   ar
    19    28    29   ar
    20    29    30    1
    21     4     5    1
    22     5     6    1
    23     5     7    1
    24    17    18   ar
    25    18    19   ar
    26    19    20   ar
    27    20    21   ar
    28    21    11   ar
    29    20    15   ar
    30     7     1    1
    31    29    22   ar
    32     6     8    1
    33     6     9    1
@<TRIPOS>MOLECULE
*****
 30 33 0 0 0
SMALL
GASTEIGER

@<TRIPOS>ATOM
      1 N         140.3792  143.2360  163.1917 N.pl3   1  UNL1       -0.2905
      2 C         139.6016  143.9669  164.2458 C.3     1  UNL1        0.0926
      3 C         139.6719  143.5189  165.6756 C.3     1  UNL1        0.0273
      4 C         140.5198  142.3399  166.0513 C.3     1  UNL1        0.0422
      5 C         141.2974  141.6090  164.9973 C.3     1  UNL1        0.0750
      6 N         142.1452  140.4300  165.3729 N.3     1  UNL1       -0.3206
      7 C         141.2271  142.0571  163.5674 C.3     1  UNL1        0.1079
      8 H         142.5992  140.0581  164.5387 H       1  UNL1        0.1189
      9 H         141.5580  139.7083  165.7908 H       1  UNL1        0.1189
     10 C         139.2629  144.6654  155.0393 C.3     1  UNL1        0.0523
     11 C         139.3332  144.2173  156.4692 C.ar    1  UNL1        0.0658
     12 C         138.6385  142.9581  156.8955 C.ar    1  UNL1        0.0773
     13 C         138.7088  142.5100  158.3252 C.ar    1  UNL1        0.2830
     14 O         138.0141  141.2507  158.7516 O.2     1  UNL1       -0.2651
     15 N         139.4737  143.3211  159.3287 N.ar    1  UNL1       -0.1755
     16 N         139.5440  142.8730  160.7585 N.ar    1  UNL1       -0.1461
     17 C         140.3089  143.6841  161.7619 C.ar    1  UNL1        0.1521
     18 C         141.0036  144.9434  161.3356 C.ar    1  UNL1        0.0392
     19 C         140.9334  145.3915  159.9058 C.ar    1  UNL1        0.0418
     20 C         140.1684  144.5803  158.9024 C.ar    1  UNL1        0.1667
     21 N         140.0981  145.0284  157.4726 N.ar    1  UNL1       -0.2306
     22 C         140.5900  141.8919  167.4811 C.ar    1  UNL1        0.0087
     23 C         141.4682  142.6220  168.4536 C.ar    1  UNL1        0.0300
     24 C         141.5384  142.1740  169.8834 C.ar    1  UNL1        0.1672
     25 F         142.4165  142.9042  170.8559 F       1  UNL1       -0.2018
     26 C         140.7305  140.9957  170.3407 C.ar    1  UNL1        0.1696
     27 F         140.8008  140.5477  171.7705 F       1  UNL1       -0.2017
     28 C         139.8524  140.2655  169.3682 C.ar    1  UNL1        0.0612
     29 C         139.7822  140.7136  167.9384 C.ar    1  UNL1        0.1386
     30 F         138.9041  139.9835  166.9659 F       1  UNL1       -0.2044
@<TRIPOS>BOND
     1    10    11    1
     2    11    12   ar
     3    12    13   ar
     4    13    14    2
     5    13    15   ar
     6    15    16   ar
     7    16    17   ar
     8    17     1    1
     9     1     2    1
    10     2     3    1
    11     3     4    1
    12     4    22    1
    13    22    23   ar
    14    23    24   ar
    15    24    25    1
    16    24    26   ar
    17    26    27    1
    18    26    28   ar
    19    28    29   ar
    20    29    30    1
    21     4     5    1
    22     5     6    1
    23     5     7    1
    24    17    18   ar
    25    18    19   ar
    26    19    20   ar
    27    20    21   ar
    28    21    11   ar
    29    20    15   ar
    30     7     1    1
    31    29    22   ar
    32     6     8    1
    33     6     9    1
@<TRIPOS>MOLECULE
*****
 30 33 0 0 0
SMALL
GASTEIGER

@<TRIPOS>ATOM
      1 N         140.1304  142.0671  163.0876 N.pl3   1  UNL1       -0.2905
      2 C         139.7697  143.0684  164.1447 C.3     1  UNL1        0.0926
      3 C         140.1478  142.8186  165.5746 C.3     1  UNL1        0.0273
      4 C         140.8867  141.5676  165.9474 C.3     1  UNL1        0.0422
      5 C         141.2475  140.5663  164.8904 C.3     1  UNL1        0.0750
      6 N         141.9864  139.3153  165.2632 N.3     1  UNL1       -0.3206
      7 C         140.8693  140.8162  163.4604 C.3     1  UNL1        0.1079
      8 H         142.1474  138.7536  164.4271 H       1  UNL1        0.1189
      9 H         141.4323  138.7795  165.9313 H       1  UNL1        0.1189
     10 C         138.9180  144.4061  155.1623 C.3     1  UNL1        0.0523
     11 C         139.2961  144.1563  156.5923 C.ar    1  UNL1        0.0658
     12 C         140.3526  144.9964  157.2464 C.ar    1  UNL1        0.0773
     13 C         140.7308  144.7467  158.6763 C.ar    1  UNL1        0.2830
     14 O         141.7873  145.5868  159.3304 O.2     1  UNL1       -0.2651
     15 N         140.0525  143.6567  159.4521 N.ar    1  UNL1       -0.1755
     16 N         140.4306  143.4069  160.8819 N.ar    1  UNL1       -0.1461
     17 C         139.7523  142.3170  161.6577 C.ar    1  UNL1        0.1521
     18 C         138.6958  141.4768  161.0036 C.ar    1  UNL1        0.0392
     19 C         138.3176  141.7266  159.5737 C.ar    1  UNL1        0.0418
     20 C         138.9959  142.8165  158.7980 C.ar    1  UNL1        0.1667
     21 N         138.6178  143.0663  157.3680 N.ar    1  UNL1       -0.2306
     22 C         141.2648  141.3178  167.3773 C.ar    1  UNL1        0.0087
     23 C         142.5596  141.8512  167.9149 C.ar    1  UNL1        0.0300
     24 C         142.9377  141.6015  169.3448 C.ar    1  UNL1        0.1672
     25 F         144.2325  142.1349  169.8823 F       1  UNL1       -0.2018
     26 C         142.0210  140.8182  170.2372 C.ar    1  UNL1        0.1696
     27 F         142.3991  140.5685  171.6670 F       1  UNL1       -0.2017
     28 C         140.7263  140.2848  169.6996 C.ar    1  UNL1        0.0612
     29 C         140.3482  140.5346  168.2696 C.ar    1  UNL1        0.1386
     30 F         139.0534  140.0011  167.7321 F       1  UNL1       -0.2044
@<TRIPOS>BOND
     1    10    11    1
     2    11    12   ar
     3    12    13   ar
     4    13    14    2
     5    13    15   ar
     6    15    16   ar
     7    16    17   ar
     8    17     1    1
     9     1     2    1
    10     2     3    1
    11     3     4    1
    12     4    22    1
    13    22    23   ar
    14    23    24   ar
    15    24    25    1
    16    24    26   ar
    17    26    27    1
    18    26    28   ar
    19    28    29   ar
    20    29    30    1
    21     4     5    1
    22     5     6    1
    23     5     7    1
    24    17    18   ar
    25    18    19   ar
    26    19    20   ar
    27    20    21   ar
    28    21    11   ar
    29    20    15   ar
    30     7     1    1
    31    29    22   ar
    32     6     8    1
    33     6     9    1
