@<TRIPOS>MOLECULE
*****
 22 24 0 0 0
SMALL
GASTEIGER

@<TRIPOS>ATOM
      1 C         140.9911  138.7870  165.2857 C.ar    1  UNL1        0.0437
      2 C         142.3834  138.2450  165.4182 C.ar    1  UNL1        0.0017
      3 C         143.2319  138.6362  166.5916 C.ar    1  UNL1       -0.0001
      4 C         142.6882  139.5695  167.6324 C.ar    1  UNL1        0.0000
      5 C         141.2959  140.1116  167.4998 C.ar    1  UNL1        0.0014
      6 C         140.4473  139.7203  166.3265 C.ar    1  UNL1        0.0017
      7 C         137.3898  138.3523  161.3761 C.3     1  UNL1        0.0597
      8 C         138.3235  138.6147  162.5204 C.2     1  UNL1        0.1396
      9 N         139.4907  137.7613  162.9195 N.2     1  UNL1       -0.2227
     10 C         140.1424  138.3958  164.1122 C.3     1  UNL1        0.2769
     11 C         141.0843  137.2321  164.0194 C.3     1  UNL1        0.0847
     12 N         139.3780  139.6413  164.4504 N.2     1  UNL1       -0.0450
     13 C         138.2537  139.7766  163.4665 C.2     1  UNL1        0.3285
     14 N         137.2382  140.8800  163.4345 N.pl3   1  UNL1       -0.2454
     15 H         137.2753  141.6027  164.1019 H       1  UNL1        0.2885
     16 H         136.5345  140.8815  162.7460 H       1  UNL1        0.2885
     17 C         140.7521  141.0448  168.5407 C.ar    1  UNL1        0.0192
     18 C         141.1101  142.5010  168.5029 C.ar    1  UNL1        0.0031
     19 C         140.5664  143.4343  169.5437 C.ar    1  UNL1        0.0207
     20 C         139.6646  142.9114  170.6223 C.ar    1  UNL1        0.0989
     21 N         139.3066  141.4553  170.6601 N.ar    1  UNL1       -0.2423
     22 C         139.8504  140.5220  169.6193 C.ar    1  UNL1        0.0988
@<TRIPOS>BOND
     1     7     8    1
     2     8     9    2
     3     9    10    1
     4    10    11    1
     5    10     1    1
     6     1     2   ar
     7     2     3   ar
     8     3     4   ar
     9     4     5   ar
    10     5    17    1
    11    17    18   ar
    12    18    19   ar
    13    19    20   ar
    14    20    21   ar
    15    21    22   ar
    16     5     6   ar
    17    10    12    1
    18    12    13    2
    19    13    14    1
    20    13     8    1
    21     6     1   ar
    22    22    17   ar
    23    14    15    1
    24    14    16    1
@<TRIPOS>MOLECULE
*****
 22 24 0 0 0
SMALL
GASTEIGER

@<TRIPOS>ATOM
      1 C         140.1620  138.4473  165.1045 C.ar    1  UNL1        0.0437
      2 C         138.9033  137.6341  165.1685 C.ar    1  UNL1        0.0017
      3 C         137.9136  137.8695  166.2708 C.ar    1  UNL1       -0.0001
      4 C         138.1827  138.9183  167.3090 C.ar    1  UNL1        0.0000
      5 C         139.4414  139.7315  167.2449 C.ar    1  UNL1        0.0014
      6 C         140.4311  139.4960  166.1426 C.ar    1  UNL1        0.0017
      7 C         142.7565  137.6967  160.5057 C.3     1  UNL1        0.0597
      8 C         141.8877  137.9217  161.7076 C.2     1  UNL1        0.1396
      9 N         142.3496  137.9632  163.1341 N.2     1  UNL1       -0.2227
     10 C         141.1518  138.2118  164.0022 C.3     1  UNL1        0.2769
     11 C         142.1471  138.1489  165.1226 C.3     1  UNL1        0.0847
     12 N         139.9496  138.3240  163.1122 N.2     1  UNL1       -0.0450
     13 C         140.4044  138.1447  161.6940 C.2     1  UNL1        0.3285
     14 N         139.5296  138.1818  160.4762 N.pl3   1  UNL1       -0.2454
     15 H         138.5616  138.3353  160.5699 H       1  UNL1        0.2885
     16 H         139.9233  138.0527  159.5831 H       1  UNL1        0.2885
     17 C         139.7105  140.7802  168.2830 C.ar    1  UNL1        0.0192
     18 C         140.4354  142.0386  167.9077 C.ar    1  UNL1        0.0031
     19 C         140.7045  143.0873  168.9458 C.ar    1  UNL1        0.0207
     20 C         140.2486  142.8777  170.3594 C.ar    1  UNL1        0.0989
     21 N         139.5237  141.6193  170.7348 N.ar    1  UNL1       -0.2423
     22 C         139.2546  140.5706  169.6966 C.ar    1  UNL1        0.0988
@<TRIPOS>BOND
     1     7     8    1
     2     8     9    2
     3     9    10    1
     4    10    11    1
     5    10     1    1
     6     1     2   ar
     7     2     3   ar
     8     3     4   ar
     9     4     5   ar
    10     5    17    1
    11    17    18   ar
    12    18    19   ar
    13    19    20   ar
    14    20    21   ar
    15    21    22   ar
    16     5     6   ar
    17    10    12    1
    18    12    13    2
    19    13    14    1
    20    13     8    1
    21     6     1   ar
    22    22    17   ar
    23    14    15    1
    24    14    16    1
@<TRIPOS>MOLECULE
*****
 22 24 0 0 0
SMALL
GASTEIGER

@<TRIPOS>ATOM
      1 C         139.9532  138.3976  165.0607 C.ar    1  UNL1        0.0437
      2 C         138.7273  137.5517  165.2383 C.ar    1  UNL1        0.0017
      3 C         137.8234  137.7786  166.4136 C.ar    1  UNL1       -0.0001
      4 C         138.1455  138.8512  167.4114 C.ar    1  UNL1        0.0000
      5 C         139.3714  139.6971  167.2339 C.ar    1  UNL1        0.0014
      6 C         140.2753  139.4703  166.0585 C.ar    1  UNL1        0.0017
      7 C         143.9714  138.0386  161.5724 C.3     1  UNL1        0.0597
      8 C         142.9519  138.2054  162.6600 C.2     1  UNL1        0.1396
      9 N         141.5017  137.8322  162.5738 N.2     1  UNL1       -0.2227
     10 C         140.8572  138.1708  163.8853 C.3     1  UNL1        0.2769
     11 C         139.6163  137.6357  163.2343 C.3     1  UNL1        0.0847
     12 N         141.9091  138.7533  164.7820 N.2     1  UNL1       -0.0450
     13 C         143.2038  138.7747  164.0247 C.2     1  UNL1        0.3285
     14 N         144.5192  139.2772  164.5415 N.pl3   1  UNL1       -0.2454
     15 H         144.5846  139.6346  165.4565 H       1  UNL1        0.2885
     16 H         145.3172  139.2496  163.9656 H       1  UNL1        0.2885
     17 C         139.6935  140.7698  168.2317 C.ar    1  UNL1        0.0192
     18 C         140.4227  142.0057  167.7951 C.ar    1  UNL1        0.0031
     19 C         140.7448  143.0784  168.7929 C.ar    1  UNL1        0.0207
     20 C         140.3376  142.9151  170.2273 C.ar    1  UNL1        0.0989
     21 N         139.6084  141.6792  170.6639 N.ar    1  UNL1       -0.2423
     22 C         139.2863  140.6065  169.6661 C.ar    1  UNL1        0.0988
@<TRIPOS>BOND
     1     7     8    1
     2     8     9    2
     3     9    10    1
     4    10    11    1
     5    10     1    1
     6     1     2   ar
     7     2     3   ar
     8     3     4   ar
     9     4     5   ar
    10     5    17    1
    11    17    18   ar
    12    18    19   ar
    13    19    20   ar
    14    20    21   ar
    15    21    22   ar
    16     5     6   ar
    17    10    12    1
    18    12    13    2
    19    13    14    1
    20    13     8    1
    21     6     1   ar
    22    22    17   ar
    23    14    15    1
    24    14    16    1
@<TRIPOS>MOLECULE
*****
 22 24 0 0 0
SMALL
GASTEIGER

@<TRIPOS>ATOM
      1 C         140.3611  140.4618  167.3882 C.ar    1  UNL1        0.0437
      2 C         139.2728  139.9781  168.3001 C.ar    1  UNL1        0.0017
      3 C         138.1642  139.1253  167.7582 C.ar    1  UNL1       -0.0001
      4 C         138.1439  138.7562  166.3045 C.ar    1  UNL1        0.0000
      5 C         139.2321  139.2400  165.3926 C.ar    1  UNL1        0.0014
      6 C         140.3408  140.0928  165.9344 C.ar    1  UNL1        0.0017
      7 C         144.4349  142.6290  170.0622 C.3     1  UNL1        0.0597
      8 C         143.3017  141.8898  169.4147 C.2     1  UNL1        0.1396
      9 N         142.4933  142.3653  168.2440 N.2     1  UNL1       -0.2227
     10 C         141.4698  141.3146  167.9300 C.3     1  UNL1        0.2769
     11 C         141.0622  142.2613  166.8402 C.3     1  UNL1        0.0847
     12 N         141.6457  140.1897  168.9066 N.2     1  UNL1       -0.0450
     13 C         142.7778  140.5452  169.8242 C.2     1  UNL1        0.3285
     14 N         143.2953  139.7038  170.9530 N.pl3   1  UNL1       -0.2454
     15 H         142.8833  138.8305  171.1449 H       1  UNL1        0.2885
     16 H         144.0468  140.0249  171.5019 H       1  UNL1        0.2885
     17 C         139.2118  138.8710  163.9388 C.ar    1  UNL1        0.0192
     18 C         138.1443  139.4213  163.0402 C.ar    1  UNL1        0.0031
     19 C         138.1240  139.0523  161.5865 C.ar    1  UNL1        0.0207
     20 C         139.1711  138.1329  161.0313 C.ar    1  UNL1        0.0989
     21 N         140.2385  137.5825  161.9300 N.ar    1  UNL1       -0.2423
     22 C         140.2589  137.9516  163.3837 C.ar    1  UNL1        0.0988
@<TRIPOS>BOND
     1     7     8    1
     2     8     9    2
     3     9    10    1
     4    10    11    1
     5    10     1    1
     6     1     2   ar
     7     2     3   ar
     8     3     4   ar
     9     4     5   ar
    10     5    17    1
    11    17    18   ar
    12    18    19   ar
    13    19    20   ar
    14    20    21   ar
    15    21    22   ar
    16     5     6   ar
    17    10    12    1
    18    12    13    2
    19    13    14    1
    20    13     8    1
    21     6     1   ar
    22    22    17   ar
    23    14    15    1
    24    14    16    1
@<TRIPOS>MOLECULE
*****
 22 24 0 0 0
SMALL
GASTEIGER

@<TRIPOS>ATOM
      1 C         139.4023  142.8403  164.9209 C.ar    1  UNL1        0.0437
      2 C         138.7889  141.4772  164.7958 C.ar    1  UNL1        0.0017
      3 C         139.0536  140.4367  165.8433 C.ar    1  UNL1       -0.0001
      4 C         139.9317  140.7593  167.0158 C.ar    1  UNL1        0.0000
      5 C         140.5451  142.1224  167.1409 C.ar    1  UNL1        0.0014
      6 C         140.2803  143.1629  166.0934 C.ar    1  UNL1        0.0017
      7 C         139.6001  146.4925  161.0395 C.3     1  UNL1        0.0597
      8 C         139.7102  145.4524  162.1147 C.2     1  UNL1        0.1396
      9 N         138.5741  144.8881  162.9152 N.2     1  UNL1       -0.2227
     10 C         139.1375  143.8809  163.8734 C.3     1  UNL1        0.2769
     11 C         137.7086  143.7216  164.3007 C.3     1  UNL1        0.0847
     12 N         140.6219  143.8226  163.6650 N.2     1  UNL1       -0.0450
     13 C         140.9758  144.7939  162.5780 C.2     1  UNL1        0.3285
     14 N         142.3534  145.0599  162.0476 N.pl3   1  UNL1       -0.2454
     15 H         143.1257  144.5747  162.4182 H       1  UNL1        0.2885
     16 H         142.4853  145.7197  161.3290 H       1  UNL1        0.2885
     17 C         141.4231  142.4451  168.3135 C.ar    1  UNL1        0.0192
     18 C         142.8582  142.0088  168.3183 C.ar    1  UNL1        0.0031
     19 C         143.7363  142.3314  169.4908 C.ar    1  UNL1        0.0207
     20 C         143.1793  143.0903  170.6586 C.ar    1  UNL1        0.0989
     21 N         141.7442  143.5266  170.6538 N.ar    1  UNL1       -0.2423
     22 C         140.8661  143.2040  169.4812 C.ar    1  UNL1        0.0988
@<TRIPOS>BOND
     1     7     8    1
     2     8     9    2
     3     9    10    1
     4    10    11    1
     5    10     1    1
     6     1     2   ar
     7     2     3   ar
     8     3     4   ar
     9     4     5   ar
    10     5    17    1
    11    17    18   ar
    12    18    19   ar
    13    19    20   ar
    14    20    21   ar
    15    21    22   ar
    16     5     6   ar
    17    10    12    1
    18    12    13    2
    19    13    14    1
    20    13     8    1
    21     6     1   ar
    22    22    17   ar
    23    14    15    1
    24    14    16    1
@<TRIPOS>MOLECULE
*****
 22 24 0 0 0
SMALL
GASTEIGER

@<TRIPOS>ATOM
      1 C         140.3131  140.4414  166.6132 C.ar    1  UNL1        0.0437
      2 C         139.1903  139.4620  166.4400 C.ar    1  UNL1        0.0017
      3 C         138.1129  139.7271  165.4307 C.ar    1  UNL1       -0.0001
      4 C         138.1583  140.9715  164.5944 C.ar    1  UNL1        0.0000
      5 C         139.2812  141.9509  164.7676 C.ar    1  UNL1        0.0014
      6 C         140.3586  141.6858  165.7769 C.ar    1  UNL1        0.0017
      7 C         143.2633  139.4313  170.9397 C.3     1  UNL1        0.0597
      8 C         142.3003  139.7072  169.8233 C.2     1  UNL1        0.1396
      9 N         142.6603  139.9416  168.3861 N.2     1  UNL1       -0.2227
     10 C         141.3906  140.1764  167.6226 C.3     1  UNL1        0.2769
     11 C         142.3100  140.3211  166.4463 C.3     1  UNL1        0.0847
     12 N         140.2460  140.0871  168.5879 N.2     1  UNL1       -0.0450
     13 C         140.8082  139.7971  169.9481 C.2     1  UNL1        0.3285
     14 N         140.0172  139.6270  171.2111 N.pl3   1  UNL1       -0.2454
     15 H         139.0360  139.7046  171.1916 H       1  UNL1        0.2885
     16 H         140.4793  139.4377  172.0595 H       1  UNL1        0.2885
     17 C         139.3266  143.1953  163.9313 C.ar    1  UNL1        0.0192
     18 C         140.5936  143.9932  163.8422 C.ar    1  UNL1        0.0031
     19 C         140.6391  145.2377  163.0059 C.ar    1  UNL1        0.0207
     20 C         139.4175  145.6842  162.2588 C.ar    1  UNL1        0.0989
     21 N         138.1504  144.8863  162.3479 N.ar    1  UNL1       -0.2423
     22 C         138.1050  143.6419  163.1842 C.ar    1  UNL1        0.0988
@<TRIPOS>BOND
     1     7     8    1
     2     8     9    2
     3     9    10    1
     4    10    11    1
     5    10     1    1
     6     1     2   ar
     7     2     3   ar
     8     3     4   ar
     9     4     5   ar
    10     5    17    1
    11    17    18   ar
    12    18    19   ar
    13    19    20   ar
    14    20    21   ar
    15    21    22   ar
    16     5     6   ar
    17    10    12    1
    18    12    13    2
    19    13    14    1
    20    13     8    1
    21     6     1   ar
    22    22    17   ar
    23    14    15    1
    24    14    16    1
@<TRIPOS>MOLECULE
*****
 22 24 0 0 0
SMALL
GASTEIGER

@<TRIPOS>ATOM
      1 C         138.8378  140.5082  165.4364 C.ar    1  UNL1        0.0437
      2 C         138.0225  139.3953  166.0253 C.ar    1  UNL1        0.0017
      3 C         138.1737  139.0409  167.4749 C.ar    1  UNL1       -0.0001
      4 C         139.1401  139.7993  168.3357 C.ar    1  UNL1        0.0000
      5 C         139.9553  140.9122  167.7468 C.ar    1  UNL1        0.0014
      6 C         139.8042  141.2666  166.2971 C.ar    1  UNL1        0.0017
      7 C         138.1402  140.6366  160.1506 C.3     1  UNL1        0.0597
      8 C         138.3142  140.4353  161.6268 C.2     1  UNL1        0.1396
      9 N         138.5859  141.5100  162.6373 N.2     1  UNL1       -0.2227
     10 C         138.6866  140.8627  163.9867 C.3     1  UNL1        0.2769
     11 C         138.9277  142.2634  164.4663 C.3     1  UNL1        0.0847
     12 N         138.4772  139.3879  163.8102 N.2     1  UNL1       -0.0450
     13 C         138.2470  139.1237  162.3516 C.2     1  UNL1        0.3285
     14 N         137.9941  137.7834  161.7276 N.pl3   1  UNL1       -0.2454
     15 H         137.9683  136.9756  162.2898 H       1  UNL1        0.2885
     16 H         137.8538  137.7115  160.7558 H       1  UNL1        0.2885
     17 C         140.9217  141.6706  168.6075 C.ar    1  UNL1        0.0192
     18 C         142.3764  141.3047  168.6036 C.ar    1  UNL1        0.0031
     19 C         143.3428  142.0631  169.4644 C.ar    1  UNL1        0.0207
     20 C         142.8546  143.1874  170.3289 C.ar    1  UNL1        0.0989
     21 N         141.3999  143.5533  170.3328 N.ar    1  UNL1       -0.2423
     22 C         140.4335  142.7949  169.4721 C.ar    1  UNL1        0.0988
@<TRIPOS>BOND
     1     7     8    1
     2     8     9    2
     3     9    10    1
     4    10    11    1
     5    10     1    1
     6     1     2   ar
     7     2     3   ar
     8     3     4   ar
     9     4     5   ar
    10     5    17    1
    11    17    18   ar
    12    18    19   ar
    13    19    20   ar
    14    20    21   ar
    15    21    22   ar
    16     5     6   ar
    17    10    12    1
    18    12    13    2
    19    13    14    1
    20    13     8    1
    21     6     1   ar
    22    22    17   ar
    23    14    15    1
    24    14    16    1
@<TRIPOS>MOLECULE
*****
 22 24 0 0 0
SMALL
GASTEIGER

@<TRIPOS>ATOM
      1 C         139.0437  140.4391  164.8827 C.ar    1  UNL1        0.0437
      2 C         138.1529  139.3387  165.3780 C.ar    1  UNL1        0.0017
      3 C         138.1545  138.9696  166.8319 C.ar    1  UNL1       -0.0001
      4 C         139.0468  139.7010  167.7904 C.ar    1  UNL1        0.0000
      5 C         139.9376  140.8014  167.2951 C.ar    1  UNL1        0.0014
      6 C         139.9361  141.1705  165.8412 C.ar    1  UNL1        0.0017
      7 C         138.5451  142.7214  160.0884 C.3     1  UNL1        0.0597
      8 C         138.6143  142.2171  161.4994 C.2     1  UNL1        0.1396
      9 N         139.1751  140.8966  161.9373 N.2     1  UNL1       -0.2227
     10 C         139.0422  140.8083  163.4288 C.3     1  UNL1        0.2769
     11 C         139.6855  139.4653  163.2489 C.3     1  UNL1        0.0847
     12 N         138.3991  142.0741  163.9127 N.2     1  UNL1       -0.0450
     13 C         138.1347  142.9449  162.7202 C.2     1  UNL1        0.3285
     14 N         137.5018  144.3045  162.7444 N.pl3   1  UNL1       -0.2454
     15 H         137.2185  144.7005  163.6001 H       1  UNL1        0.2885
     16 H         137.3696  144.8010  161.9045 H       1  UNL1        0.2885
     17 C         140.8300  141.5328  168.2536 C.ar    1  UNL1        0.0192
     18 C         140.3498  142.7909  168.9143 C.ar    1  UNL1        0.0031
     19 C         141.2422  143.5223  169.8728 C.ar    1  UNL1        0.0207
     20 C         142.6147  142.9956  170.1707 C.ar    1  UNL1        0.0989
     21 N         143.0948  141.7375  169.5100 N.ar    1  UNL1       -0.2423
     22 C         142.2025  141.0061  168.5514 C.ar    1  UNL1        0.0988
@<TRIPOS>BOND
     1     7     8    1
     2     8     9    2
     3     9    10    1
     4    10    11    1
     5    10     1    1
     6     1     2   ar
     7     2     3   ar
     8     3     4   ar
     9     4     5   ar
    10     5    17    1
    11    17    18   ar
    12    18    19   ar
    13    19    20   ar
    14    20    21   ar
    15    21    22   ar
    16     5     6   ar
    17    10    12    1
    18    12    13    2
    19    13    14    1
    20    13     8    1
    21     6     1   ar
    22    22    17   ar
    23    14    15    1
    24    14    16    1
@<TRIPOS>MOLECULE
*****
 22 24 0 0 0
SMALL
GASTEIGER

@<TRIPOS>ATOM
      1 C         141.7201  140.1131  167.1660 C.ar    1  UNL1        0.0437
      2 C         142.9706  139.3130  167.3808 C.ar    1  UNL1        0.0017
      3 C         143.3841  138.2827  166.3721 C.ar    1  UNL1       -0.0001
      4 C         142.5472  138.0526  165.1488 C.ar    1  UNL1        0.0000
      5 C         141.2968  138.8527  164.9340 C.ar    1  UNL1        0.0014
      6 C         140.8832  139.8830  165.9427 C.ar    1  UNL1        0.0017
      7 C         139.4510  142.9978  171.0354 C.3     1  UNL1        0.0597
      8 C         139.9765  142.0682  169.9821 C.2     1  UNL1        0.1396
      9 N         141.1290  142.3403  169.0614 N.2     1  UNL1       -0.2227
     10 C         141.3065  141.1435  168.1747 C.3     1  UNL1        0.2769
     11 C         142.4357  141.9399  167.5912 C.3     1  UNL1        0.0847
     12 N         140.2637  140.1317  168.5474 N.2     1  UNL1       -0.0450
     13 C         139.4417  140.7032  169.6645 C.2     1  UNL1        0.3285
     14 N         138.2876  140.0283  170.3444 N.pl3   1  UNL1       -0.2454
     15 H         138.0098  139.1265  170.0636 H       1  UNL1        0.2885
     16 H         137.8079  140.4870  171.0715 H       1  UNL1        0.2885
     17 C         140.4599  138.6225  163.7107 C.ar    1  UNL1        0.0192
     18 C         139.0168  139.0314  163.7014 C.ar    1  UNL1        0.0031
     19 C         138.1799  138.8012  162.4780 C.ar    1  UNL1        0.0207
     20 C         138.7861  138.1622  161.2639 C.ar    1  UNL1        0.0989
     21 N         140.2293  137.7533  161.2732 N.ar    1  UNL1       -0.2423
     22 C         141.0661  137.9835  162.4966 C.ar    1  UNL1        0.0988
@<TRIPOS>BOND
     1     7     8    1
     2     8     9    2
     3     9    10    1
     4    10    11    1
     5    10     1    1
     6     1     2   ar
     7     2     3   ar
     8     3     4   ar
     9     4     5   ar
    10     5    17    1
    11    17    18   ar
    12    18    19   ar
    13    19    20   ar
    14    20    21   ar
    15    21    22   ar
    16     5     6   ar
    17    10    12    1
    18    12    13    2
    19    13    14    1
    20    13     8    1
    21     6     1   ar
    22    22    17   ar
    23    14    15    1
    24    14    16    1
