@<TRIPOS>MOLECULE
*****
 34 36 0 0 0
SMALL
GASTEIGER

@<TRIPOS>ATOM
      1 C         142.0869  139.2117  164.2061 C.3     1  UNL1        0.0690
      2 C         141.0295  138.1480  164.1968 C.3     1  UNL1        0.0485
      3 C         140.9216  137.2079  163.0329 C.3     1  UNL1        0.1436
      4 O         141.8712  137.3317  161.8783 O.3     1  UNL1       -0.3537
      5 C         142.9286  138.3955  161.8877 C.3     1  UNL1        0.1436
      6 C         143.0365  139.3355  163.0515 C.3     1  UNL1        0.0485
      7 N         141.4247  139.4911  165.5228 N.3     1  UNL1       -0.2710
      8 C         142.2522  139.6098  166.7682 C.3     1  UNL1        0.0896
      9 C         141.5900  139.8892  168.0848 C.3     1  UNL1        0.0897
     10 N         140.1003  140.0499  168.1559 N.3     1  UNL1       -0.2682
     11 C         139.2728  139.9313  166.9105 C.3     1  UNL1        0.0897
     12 C         139.9350  139.6519  165.5939 C.3     1  UNL1        0.0896
     13 C         139.4381  140.3293  169.4726 C.3     1  UNL1        0.1046
     14 C         140.2640  140.4329  170.7204 C.3     1  UNL1        0.1593
     15 O         140.5797  141.7794  171.3013 O.3     1  UNL1       -0.3548
     16 C         141.2357  142.8274  170.4522 C.3     1  UNL1        0.1154
     17 C         140.4070  143.9031  169.8149 C.3     1  UNL1        0.0320
     18 C         142.7204  142.7999  170.2403 C.3     1  UNL1        0.0320
     19 C         142.9144  140.3726  164.6727 C.3     1  UNL1        0.1143
     20 C         144.0335  142.5357  163.7680 C.2     1  UNL1        0.2304
     21 O         145.3667  142.0491  164.2537 O.2     1  UNL1       -0.2745
     22 N         142.8073  141.6974  163.9776 N.am    1  UNL1       -0.2425
     23 C         141.4741  142.1841  163.4920 C.ar    1  UNL1        0.1373
     24 C         141.0430  141.9076  162.0821 C.ar    1  UNL1        0.0347
     25 C         139.7097  142.3942  161.5965 C.ar    1  UNL1        0.0044
     26 C         138.8078  143.1573  162.5207 C.ar    1  UNL1        0.0232
     27 C         139.2391  143.4338  163.9305 C.ar    1  UNL1        0.1540
     28 N         140.5722  142.9472  164.4162 N.ar    1  UNL1       -0.2263
     29 C         138.3371  144.1970  164.8548 C.3     1  UNL1        0.4349
     30 F         137.4352  144.9601  165.7790 F       1  UNL1       -0.1644
     31 F         139.3654  145.2839  164.9606 F       1  UNL1       -0.1644
     32 F         137.3089  143.1100  164.7489 F       1  UNL1       -0.1644
     33 C         143.5963  145.0952  163.8582 C.3     1  UNL1        0.0101
     34 C         143.9265  143.8606  163.0729 C.3     1  UNL1        0.0857
@<TRIPOS>BOND
     1    33    34    1
     2    34    20    1
     3    20    21    2
     4    20    22   am
     5    22    19    1
     6    19     1    1
     7     1     7    1
     8     7     8    1
     9     8     9    1
    10     9    10    1
    11    10    13    1
    12    13    14    1
    13    14    15    1
    14    15    16    1
    15    16    17    1
    16    16    18    1
    17    10    11    1
    18    11    12    1
    19     1     2    1
    20     2     3    1
    21     3     4    1
    22     4     5    1
    23     5     6    1
    24    22    23    1
    25    23    24   ar
    26    24    25   ar
    27    25    26   ar
    28    26    27   ar
    29    27    29    1
    30    29    30    1
    31    29    31    1
    32    29    32    1
    33    27    28   ar
    34     6     1    1
    35    28    23   ar
    36    12     7    1
@<TRIPOS>MOLECULE
*****
 34 36 0 0 0
SMALL
GASTEIGER

@<TRIPOS>ATOM
      1 C         143.5011  142.0744  164.5058 C.3     1  UNL1        0.0690
      2 C         144.6395  141.1012  164.5893 C.3     1  UNL1        0.0485
      3 C         145.6238  140.9999  163.4620 C.3     1  UNL1        0.1436
      4 O         145.4697  141.8718  162.2511 O.3     1  UNL1       -0.3537
      5 C         144.3313  142.8450  162.1676 C.3     1  UNL1        0.1436
      6 C         143.3470  142.9463  163.2949 C.3     1  UNL1        0.0485
      7 N         143.2267  141.4673  165.8497 N.3     1  UNL1       -0.2710
      8 C         143.1620  142.3401  167.0679 C.3     1  UNL1        0.0896
      9 C         142.8876  141.7330  168.4118 C.3     1  UNL1        0.0897
     10 N         142.6779  140.2531  168.5375 N.3     1  UNL1       -0.2682
     11 C         142.7426  139.3802  167.3193 C.3     1  UNL1        0.0897
     12 C         143.0170  139.9874  165.9755 C.3     1  UNL1        0.0896
     13 C         142.4035  139.6459  169.8815 C.3     1  UNL1        0.1046
     14 C         142.2862  140.5246  171.0915 C.3     1  UNL1        0.1593
     15 O         140.9348  140.9676  171.5685 O.3     1  UNL1       -0.3548
     16 C         139.9423  141.5290  170.5940 C.3     1  UNL1        0.1154
     17 C         139.9753  142.9878  170.2465 C.3     1  UNL1        0.0320
     18 C         138.9169  140.6316  169.9669 C.3     1  UNL1        0.0320
     19 C         142.2674  142.8368  164.8890 C.3     1  UNL1        0.1143
     20 C         140.1834  143.7503  163.6351 C.2     1  UNL1        0.2304
     21 O         140.6771  145.1524  163.8362 O.2     1  UNL1       -0.2745
     22 N         140.9786  142.5925  164.1616 N.am    1  UNL1       -0.2425
     23 C         140.4849  141.1904  163.9605 C.ar    1  UNL1        0.1373
     24 C         140.8483  140.4388  162.7143 C.ar    1  UNL1        0.0347
     25 C         140.3546  139.0366  162.5133 C.ar    1  UNL1        0.0044
     26 C         139.4975  138.3862  163.5585 C.ar    1  UNL1        0.0232
     27 C         139.1342  139.1379  164.8046 C.ar    1  UNL1        0.1540
     28 N         139.6278  140.5400  165.0057 N.ar    1  UNL1       -0.2263
     29 C         138.2770  138.4874  165.8498 C.3     1  UNL1        0.4349
     30 F         137.4200  137.8370  166.8950 F       1  UNL1       -0.1644
     31 F         137.7264  139.8290  166.2330 F       1  UNL1       -0.1644
     32 F         138.8278  137.1459  165.4666 F       1  UNL1       -0.1644
     33 C         137.6884  144.3424  163.2172 C.3     1  UNL1        0.0101
     34 C         138.8945  143.5061  162.9077 C.3     1  UNL1        0.0857
@<TRIPOS>BOND
     1    33    34    1
     2    34    20    1
     3    20    21    2
     4    20    22   am
     5    22    19    1
     6    19     1    1
     7     1     7    1
     8     7     8    1
     9     8     9    1
    10     9    10    1
    11    10    13    1
    12    13    14    1
    13    14    15    1
    14    15    16    1
    15    16    17    1
    16    16    18    1
    17    10    11    1
    18    11    12    1
    19     1     2    1
    20     2     3    1
    21     3     4    1
    22     4     5    1
    23     5     6    1
    24    22    23    1
    25    23    24   ar
    26    24    25   ar
    27    25    26   ar
    28    26    27   ar
    29    27    29    1
    30    29    30    1
    31    29    31    1
    32    29    32    1
    33    27    28   ar
    34     6     1    1
    35    28    23   ar
    36    12     7    1
@<TRIPOS>MOLECULE
*****
 34 36 0 0 0
SMALL
GASTEIGER

@<TRIPOS>ATOM
      1 C         142.9637  141.4689  164.6415 C.3     1  UNL1        0.0690
      2 C         143.8515  140.2599  164.6512 C.3     1  UNL1        0.0485
      3 C         144.4136  139.7318  163.3647 C.3     1  UNL1        0.1436
      4 O         144.0880  140.4128  162.0684 O.3     1  UNL1       -0.3537
      5 C         143.2003  141.6218  162.0587 C.3     1  UNL1        0.1436
      6 C         142.6381  142.1499  163.3453 C.3     1  UNL1        0.0485
      7 N         142.9834  141.1719  166.1117 N.3     1  UNL1       -0.2710
      8 C         142.7715  139.7683  166.5963 C.3     1  UNL1        0.0896
      9 C         142.7912  139.4714  168.0665 C.3     1  UNL1        0.0897
     10 N         143.0227  140.5782  169.0521 N.3     1  UNL1       -0.2682
     11 C         143.2346  141.9819  168.5675 C.3     1  UNL1        0.0897
     12 C         143.2149  142.2787  167.0973 C.3     1  UNL1        0.0896
     13 C         143.0424  140.2813  170.5223 C.3     1  UNL1        0.1046
     14 C         141.8771  140.6723  171.3821 C.3     1  UNL1        0.1593
     15 O         141.4260  142.1022  171.4290 O.3     1  UNL1       -0.3548
     16 C         140.3329  142.5741  170.5167 C.3     1  UNL1        0.1154
     17 C         139.2579  141.6235  170.0801 C.3     1  UNL1        0.0320
     18 C         140.3147  143.9966  170.0411 C.3     1  UNL1        0.0320
     19 C         142.0828  142.5748  165.1424 C.3     1  UNL1        0.1143
     20 C         139.8656  143.7706  164.5068 C.2     1  UNL1        0.2304
     21 O         140.6066  145.0666  164.3604 O.2     1  UNL1       -0.2745
     22 N         140.6037  142.5247  164.8978 N.am    1  UNL1       -0.2425
     23 C         139.8628  141.2287  165.0442 C.ar    1  UNL1        0.1373
     24 C         139.4562  140.7469  166.4053 C.ar    1  UNL1        0.0347
     25 C         138.7153  139.4509  166.5517 C.ar    1  UNL1        0.0044
     26 C         138.3809  138.6368  165.3370 C.ar    1  UNL1        0.0232
     27 C         138.7875  139.1187  163.9760 C.ar    1  UNL1        0.1540
     28 N         139.5284  140.4146  163.8295 N.ar    1  UNL1       -0.2263
     29 C         138.4531  138.3045  162.7613 C.3     1  UNL1        0.4349
     30 F         138.1187  137.4904  161.5466 F       1  UNL1       -0.1644
     31 F         137.5126  139.3784  162.3005 F       1  UNL1       -0.1644
     32 F         139.3936  137.2307  163.2221 F       1  UNL1       -0.1644
     33 C         137.8624  143.5499  162.8671 C.3     1  UNL1        0.0101
     34 C         138.3865  143.7206  164.2621 C.3     1  UNL1        0.0857
@<TRIPOS>BOND
     1    33    34    1
     2    34    20    1
     3    20    21    2
     4    20    22   am
     5    22    19    1
     6    19     1    1
     7     1     7    1
     8     7     8    1
     9     8     9    1
    10     9    10    1
    11    10    13    1
    12    13    14    1
    13    14    15    1
    14    15    16    1
    15    16    17    1
    16    16    18    1
    17    10    11    1
    18    11    12    1
    19     1     2    1
    20     2     3    1
    21     3     4    1
    22     4     5    1
    23     5     6    1
    24    22    23    1
    25    23    24   ar
    26    24    25   ar
    27    25    26   ar
    28    26    27   ar
    29    27    29    1
    30    29    30    1
    31    29    31    1
    32    29    32    1
    33    27    28   ar
    34     6     1    1
    35    28    23   ar
    36    12     7    1
@<TRIPOS>MOLECULE
*****
 34 36 0 0 0
SMALL
GASTEIGER

@<TRIPOS>ATOM
      1 C         142.9952  142.0662  164.9397 C.3     1  UNL1        0.0690
      2 C         144.2206  141.2070  164.8400 C.3     1  UNL1        0.0485
      3 C         145.1261  141.3272  163.6503 C.3     1  UNL1        0.1436
      4 O         144.8062  142.3068  162.5602 O.3     1  UNL1       -0.3537
      5 C         143.5808  143.1660  162.6599 C.3     1  UNL1        0.1436
      6 C         142.6752  143.0458  163.8497 C.3     1  UNL1        0.0485
      7 N         142.8750  141.2917  166.2187 N.3     1  UNL1       -0.2710
      8 C         142.9129  139.7924  166.1940 C.3     1  UNL1        0.0896
      9 C         142.7927  139.0180  167.4729 C.3     1  UNL1        0.0897
     10 N         142.6345  139.7428  168.7766 N.3     1  UNL1       -0.2682
     11 C         142.5966  141.2421  168.8014 C.3     1  UNL1        0.0897
     12 C         142.7168  142.0165  167.5224 C.3     1  UNL1        0.0896
     13 C         142.5143  138.9683  170.0556 C.3     1  UNL1        0.1046
     14 C         143.3983  137.7813  170.2995 C.3     1  UNL1        0.1593
     15 O         144.4340  137.8275  171.3837 O.3     1  UNL1       -0.3548
     16 C         145.1769  136.5814  171.7648 C.3     1  UNL1        0.1154
     17 C         146.3192  136.6562  172.7341 C.3     1  UNL1        0.0320
     18 C         144.7776  135.2606  171.1767 C.3     1  UNL1        0.0320
     19 C         141.7280  142.6566  165.4837 C.3     1  UNL1        0.1143
     20 C         139.4837  143.4133  164.4156 C.2     1  UNL1        0.2304
     21 O         139.8740  144.8482  164.6124 O.2     1  UNL1       -0.2745
     22 N         140.4108  142.3175  164.8513 N.am    1  UNL1       -0.2425
     23 C         140.0205  140.8825  164.6546 C.ar    1  UNL1        0.1373
     24 C         140.4899  140.1374  163.4403 C.ar    1  UNL1        0.0347
     25 C         140.0996  138.7024  163.2436 C.ar    1  UNL1        0.0044
     26 C         139.2401  138.0127  164.2611 C.ar    1  UNL1        0.0232
     27 C         138.7708  138.7579  165.4754 C.ar    1  UNL1        0.1540
     28 N         139.1610  140.1928  165.6722 N.ar    1  UNL1       -0.2263
     29 C         137.9112  138.0681  166.4930 C.3     1  UNL1        0.4349
     30 F         137.0517  137.3783  167.5106 F       1  UNL1       -0.1644
     31 F         137.7693  139.3571  167.2467 F       1  UNL1       -0.1644
     32 F         138.0532  136.7791  165.7392 F       1  UNL1       -0.1644
     33 C         138.0396  143.0357  162.2891 C.3     1  UNL1        0.0101
     34 C         138.1665  143.0743  163.7833 C.3     1  UNL1        0.0857
@<TRIPOS>BOND
     1    33    34    1
     2    34    20    1
     3    20    21    2
     4    20    22   am
     5    22    19    1
     6    19     1    1
     7     1     7    1
     8     7     8    1
     9     8     9    1
    10     9    10    1
    11    10    13    1
    12    13    14    1
    13    14    15    1
    14    15    16    1
    15    16    17    1
    16    16    18    1
    17    10    11    1
    18    11    12    1
    19     1     2    1
    20     2     3    1
    21     3     4    1
    22     4     5    1
    23     5     6    1
    24    22    23    1
    25    23    24   ar
    26    24    25   ar
    27    25    26   ar
    28    26    27   ar
    29    27    29    1
    30    29    30    1
    31    29    31    1
    32    29    32    1
    33    27    28   ar
    34     6     1    1
    35    28    23   ar
    36    12     7    1
@<TRIPOS>MOLECULE
*****
 34 36 0 0 0
SMALL
GASTEIGER

@<TRIPOS>ATOM
      1 C         141.3620  141.0658  167.8715 C.3     1  UNL1        0.0690
      2 C         142.3411  140.0327  168.3446 C.3     1  UNL1        0.0485
      3 C         142.0510  139.2354  169.5816 C.3     1  UNL1        0.1436
      4 O         140.7818  139.4714  170.3455 O.3     1  UNL1       -0.3537
      5 C         139.8027  140.5045  169.8724 C.3     1  UNL1        0.1436
      6 C         140.0927  141.3017  168.6354 C.3     1  UNL1        0.0485
      7 N         142.4185  141.2056  166.8159 N.3     1  UNL1       -0.2710
      8 C         142.9248  139.9909  166.0960 C.3     1  UNL1        0.0896
      9 C         143.9813  140.1308  165.0405 C.3     1  UNL1        0.0897
     10 N         144.5316  141.4852  164.7049 N.3     1  UNL1       -0.2682
     11 C         144.0253  142.6999  165.4247 C.3     1  UNL1        0.0897
     12 C         142.9688  142.5600  166.4802 C.3     1  UNL1        0.0896
     13 C         145.5882  141.6250  163.6493 C.3     1  UNL1        0.1046
     14 C         145.2199  142.1125  162.2794 C.3     1  UNL1        0.1593
     15 O         144.9260  141.1278  161.1867 O.3     1  UNL1       -0.3548
     16 C         143.8109  140.1378  161.3491 C.3     1  UNL1        0.1154
     17 C         144.1005  138.6669  161.2988 C.3     1  UNL1        0.0320
     18 C         142.4061  140.6187  161.5620 C.3     1  UNL1        0.0320
     19 C         140.7497  142.1475  167.0317 C.3     1  UNL1        0.1143
     20 C         138.9584  142.8897  165.3025 C.2     1  UNL1        0.2304
     21 O         139.2143  144.3254  165.6537 O.2     1  UNL1       -0.2745
     22 N         139.7262  141.8008  165.9915 N.am    1  UNL1       -0.2425
     23 C         139.4703  140.3650  165.6404 C.ar    1  UNL1        0.1373
     24 C         138.4703  139.5680  166.4244 C.ar    1  UNL1        0.0347
     25 C         138.2145  138.1322  166.0732 C.ar    1  UNL1        0.0044
     26 C         138.9586  137.4937  164.9381 C.ar    1  UNL1        0.0232
     27 C         139.9585  138.2909  164.1541 C.ar    1  UNL1        0.1540
     28 N         140.2144  139.7265  164.5052 N.ar    1  UNL1       -0.2263
     29 C         140.7026  137.6523  163.0189 C.3     1  UNL1        0.4349
     30 F         141.4467  137.0138  161.8837 F       1  UNL1       -0.1644
     31 F         139.4405  137.6215  162.2090 F       1  UNL1       -0.1644
     32 F         141.9647  137.6831  163.8289 F       1  UNL1       -0.1644
     33 C         137.6205  143.5167  163.1654 C.3     1  UNL1        0.0101
     34 C         137.9348  142.5430  164.2623 C.3     1  UNL1        0.0857
@<TRIPOS>BOND
     1    33    34    1
     2    34    20    1
     3    20    21    2
     4    20    22   am
     5    22    19    1
     6    19     1    1
     7     1     7    1
     8     7     8    1
     9     8     9    1
    10     9    10    1
    11    10    13    1
    12    13    14    1
    13    14    15    1
    14    15    16    1
    15    16    17    1
    16    16    18    1
    17    10    11    1
    18    11    12    1
    19     1     2    1
    20     2     3    1
    21     3     4    1
    22     4     5    1
    23     5     6    1
    24    22    23    1
    25    23    24   ar
    26    24    25   ar
    27    25    26   ar
    28    26    27   ar
    29    27    29    1
    30    29    30    1
    31    29    31    1
    32    29    32    1
    33    27    28   ar
    34     6     1    1
    35    28    23   ar
    36    12     7    1
@<TRIPOS>MOLECULE
*****
 34 36 0 0 0
SMALL
GASTEIGER

@<TRIPOS>ATOM
      1 C         142.7977  140.0539  164.2906 C.3     1  UNL1        0.0690
      2 C         144.1576  140.6822  164.3662 C.3     1  UNL1        0.0485
      3 C         145.0080  140.7804  163.1344 C.3     1  UNL1        0.1436
      4 O         144.4983  140.2503  161.8270 O.3     1  UNL1       -0.3537
      5 C         143.1384  139.6220  161.7514 C.3     1  UNL1        0.1436
      6 C         142.2881  139.5237  162.9832 C.3     1  UNL1        0.0485
      7 N         142.8401  140.4086  165.7475 N.3     1  UNL1       -0.2710
      8 C         143.1133  141.8224  166.1676 C.3     1  UNL1        0.0896
      9 C         143.1557  142.1770  167.6244 C.3     1  UNL1        0.0897
     10 N         142.9249  141.1178  168.6612 N.3     1  UNL1       -0.2682
     11 C         142.6518  139.7040  168.2411 C.3     1  UNL1        0.0897
     12 C         142.6094  139.3494  166.7843 C.3     1  UNL1        0.0896
     13 C         142.9674  141.4725  170.1181 C.3     1  UNL1        0.1046
     14 C         142.2759  140.5995  171.1229 C.3     1  UNL1        0.1593
     15 O         140.8810  140.9269  171.5670 O.3     1  UNL1       -0.3548
     16 C         139.8978  141.5000  170.5898 C.3     1  UNL1        0.1154
     17 C         139.7004  142.9847  170.5081 C.3     1  UNL1        0.0320
     18 C         139.1122  140.5884  169.6944 C.3     1  UNL1        0.0320
     19 C         141.4525  139.5487  164.7210 C.3     1  UNL1        0.1143
     20 C         139.1171  139.3816  163.5950 C.2     1  UNL1        0.2304
     21 O         139.2758  137.8939  163.4866 O.2     1  UNL1       -0.2745
     22 N         140.2055  140.2090  164.2122 N.am    1  UNL1       -0.2425
     23 C         140.0468  141.6967  164.3205 C.ar    1  UNL1        0.1373
     24 C         139.5887  142.3100  165.6104 C.ar    1  UNL1        0.0347
     25 C         139.4300  143.7977  165.7188 C.ar    1  UNL1        0.0044
     26 C         139.7294  144.6719  164.5372 C.ar    1  UNL1        0.0232
     27 C         140.1874  144.0584  163.2473 C.ar    1  UNL1        0.1540
     28 N         140.3462  142.5708  163.1389 N.ar    1  UNL1       -0.2263
     29 C         140.4869  144.9327  162.0657 C.3     1  UNL1        0.4349
     30 F         140.7863  145.8069  160.8841 F       1  UNL1       -0.1644
     31 F         139.5984  144.0797  161.2096 F       1  UNL1       -0.1644
     32 F         141.3754  145.7856  162.9219 F       1  UNL1       -0.1644
     33 C         137.7641  140.4329  161.6419 C.3     1  UNL1        0.0101
     34 C         137.8700  140.0418  163.0861 C.3     1  UNL1        0.0857
@<TRIPOS>BOND
     1    33    34    1
     2    34    20    1
     3    20    21    2
     4    20    22   am
     5    22    19    1
     6    19     1    1
     7     1     7    1
     8     7     8    1
     9     8     9    1
    10     9    10    1
    11    10    13    1
    12    13    14    1
    13    14    15    1
    14    15    16    1
    15    16    17    1
    16    16    18    1
    17    10    11    1
    18    11    12    1
    19     1     2    1
    20     2     3    1
    21     3     4    1
    22     4     5    1
    23     5     6    1
    24    22    23    1
    25    23    24   ar
    26    24    25   ar
    27    25    26   ar
    28    26    27   ar
    29    27    29    1
    30    29    30    1
    31    29    31    1
    32    29    32    1
    33    27    28   ar
    34     6     1    1
    35    28    23   ar
    36    12     7    1
@<TRIPOS>MOLECULE
*****
 34 36 0 0 0
SMALL
GASTEIGER

@<TRIPOS>ATOM
      1 C         138.9523  141.4324  163.2338 C.3     1  UNL1        0.0690
      2 C         138.4019  142.6584  163.9000 C.3     1  UNL1        0.0485
      3 C         137.8333  143.7715  163.0706 C.3     1  UNL1        0.1436
      4 O         137.8151  143.6584  161.5750 O.3     1  UNL1       -0.3537
      5 C         138.3655  142.4324  160.9088 C.3     1  UNL1        0.1436
      6 C         138.9341  141.3194  161.7381 C.3     1  UNL1        0.0485
      7 N         139.1903  141.0767  164.6715 N.3     1  UNL1       -0.2710
      8 C         139.9638  142.0087  165.5565 C.3     1  UNL1        0.0896
      9 C         140.2018  141.6529  166.9941 C.3     1  UNL1        0.0897
     10 N         139.6664  140.3653  167.5467 N.3     1  UNL1       -0.2682
     11 C         138.8930  139.4334  166.6617 C.3     1  UNL1        0.0897
     12 C         138.6549  139.7891  165.2241 C.3     1  UNL1        0.0896
     13 C         139.9045  140.0096  168.9844 C.3     1  UNL1        0.1046
     14 C         139.2058  140.7717  170.0712 C.3     1  UNL1        0.1593
     15 O         139.9953  141.6418  171.0038 O.3     1  UNL1       -0.3548
     16 C         140.9435  142.6651  170.4527 C.3     1  UNL1        0.1154
     17 C         140.4158  143.9564  169.9013 C.3     1  UNL1        0.0320
     18 C         142.4194  142.3971  170.4529 C.3     1  UNL1        0.0320
     19 C         139.5854  140.0828  163.0669 C.3     1  UNL1        0.1143
     20 C         141.2924  139.1472  161.3463 C.2     1  UNL1        0.2304
     21 O         140.1825  138.4327  160.6337 O.2     1  UNL1       -0.2745
     22 N         140.9938  139.9722  162.5628 N.am    1  UNL1       -0.2425
     23 C         142.1037  140.6867  163.2754 C.ar    1  UNL1        0.1373
     24 C         142.9055  139.9717  164.3222 C.ar    1  UNL1        0.0347
     25 C         144.0154  140.6862  165.0347 C.ar    1  UNL1        0.0044
     26 C         144.3234  142.1156  164.7004 C.ar    1  UNL1        0.0232
     27 C         143.5215  142.8306  163.6537 C.ar    1  UNL1        0.1540
     28 N         142.4116  142.1162  162.9411 N.ar    1  UNL1       -0.2263
     29 C         143.8295  144.2602  163.3194 C.3     1  UNL1        0.4349
     30 F         144.1374  145.6897  162.9852 F       1  UNL1       -0.1644
     31 F         144.8664  143.8065  162.3350 F       1  UNL1       -0.1644
     32 F         142.7926  144.7137  164.3038 F       1  UNL1       -0.1644
     33 C         143.5590  137.8802  161.2619 C.3     1  UNL1        0.0101
     34 C         142.7008  139.0365  160.8421 C.3     1  UNL1        0.0857
@<TRIPOS>BOND
     1    33    34    1
     2    34    20    1
     3    20    21    2
     4    20    22   am
     5    22    19    1
     6    19     1    1
     7     1     7    1
     8     7     8    1
     9     8     9    1
    10     9    10    1
    11    10    13    1
    12    13    14    1
    13    14    15    1
    14    15    16    1
    15    16    17    1
    16    16    18    1
    17    10    11    1
    18    11    12    1
    19     1     2    1
    20     2     3    1
    21     3     4    1
    22     4     5    1
    23     5     6    1
    24    22    23    1
    25    23    24   ar
    26    24    25   ar
    27    25    26   ar
    28    26    27   ar
    29    27    29    1
    30    29    30    1
    31    29    31    1
    32    29    32    1
    33    27    28   ar
    34     6     1    1
    35    28    23   ar
    36    12     7    1
@<TRIPOS>MOLECULE
*****
 34 36 0 0 0
SMALL
GASTEIGER

@<TRIPOS>ATOM
      1 C         139.0059  139.9260  164.6327 C.3     1  UNL1        0.0690
      2 C         138.8525  139.6787  163.1612 C.3     1  UNL1        0.0485
      3 C         138.6951  138.2779  162.6484 C.3     1  UNL1        0.1436
      4 O         138.6910  137.1243  163.6073 O.3     1  UNL1       -0.3537
      5 C         138.8443  137.3716  165.0787 C.3     1  UNL1        0.1436
      6 C         139.0017  138.7724  165.5915 C.3     1  UNL1        0.0485
      7 N         139.0711  141.3355  164.1235 N.3     1  UNL1       -0.2710
      8 C         138.1646  142.3832  164.6983 C.3     1  UNL1        0.0896
      9 C         138.2298  143.7926  164.1892 C.3     1  UNL1        0.0897
     10 N         139.2016  144.1543  163.1053 N.3     1  UNL1       -0.2682
     11 C         140.1081  143.1065  162.5305 C.3     1  UNL1        0.0897
     12 C         140.0428  141.6971  163.0396 C.3     1  UNL1        0.0896
     13 C         139.2668  145.5638  162.5961 C.3     1  UNL1        0.1046
     14 C         140.1303  145.8955  161.4154 C.3     1  UNL1        0.1593
     15 O         139.7188  145.4615  160.0397 O.3     1  UNL1       -0.3548
     16 C         140.7616  145.1735  159.0007 C.3     1  UNL1        0.1154
     17 C         140.7390  145.9063  157.6922 C.3     1  UNL1        0.0320
     18 C         141.8270  144.1526  159.2704 C.3     1  UNL1        0.0320
     19 C         139.1818  140.6627  165.9274 C.3     1  UNL1        0.1143
     20 C         140.4881  140.1481  168.1134 C.2     1  UNL1        0.2304
     21 O         139.1987  139.8218  168.8071 O.2     1  UNL1       -0.2745
     22 N         140.4796  140.5685  166.6736 N.am    1  UNL1       -0.2425
     23 C         141.7690  140.8947  165.9799 C.ar    1  UNL1        0.1373
     24 C         142.6321  139.7914  165.4437 C.ar    1  UNL1        0.0347
     25 C         143.9215  140.1176  164.7500 C.ar    1  UNL1        0.0044
     26 C         144.3477  141.5471  164.5926 C.ar    1  UNL1        0.0232
     27 C         143.4845  142.6504  165.1289 C.ar    1  UNL1        0.1540
     28 N         142.1951  142.3243  165.8225 N.ar    1  UNL1       -0.2263
     29 C         143.9106  144.0801  164.9714 C.3     1  UNL1        0.4349
     30 F         144.3368  145.5096  164.8140 F       1  UNL1       -0.1644
     31 F         142.6634  144.3656  164.1886 F       1  UNL1       -0.1644
     32 F         145.1579  143.7945  165.7543 F       1  UNL1       -0.1644
     33 C         142.3770  141.2778  169.4939 C.3     1  UNL1        0.0101
     34 C         141.7859  140.0538  168.8596 C.3     1  UNL1        0.0857
@<TRIPOS>BOND
     1    33    34    1
     2    34    20    1
     3    20    21    2
     4    20    22   am
     5    22    19    1
     6    19     1    1
     7     1     7    1
     8     7     8    1
     9     8     9    1
    10     9    10    1
    11    10    13    1
    12    13    14    1
    13    14    15    1
    14    15    16    1
    15    16    17    1
    16    16    18    1
    17    10    11    1
    18    11    12    1
    19     1     2    1
    20     2     3    1
    21     3     4    1
    22     4     5    1
    23     5     6    1
    24    22    23    1
    25    23    24   ar
    26    24    25   ar
    27    25    26   ar
    28    26    27   ar
    29    27    29    1
    30    29    30    1
    31    29    31    1
    32    29    32    1
    33    27    28   ar
    34     6     1    1
    35    28    23   ar
    36    12     7    1
@<TRIPOS>MOLECULE
*****
 34 36 0 0 0
SMALL
GASTEIGER

@<TRIPOS>ATOM
      1 C         138.6528  141.8120  163.9384 C.3     1  UNL1        0.0690
      2 C         138.8219  143.1202  164.6524 C.3     1  UNL1        0.0485
      3 C         138.4859  144.4046  163.9543 C.3     1  UNL1        0.1436
      4 O         137.9808  144.3808  162.5421 O.3     1  UNL1       -0.3537
      5 C         137.8117  143.0725  161.8280 C.3     1  UNL1        0.1436
      6 C         138.1477  141.7881  162.5262 C.3     1  UNL1        0.0485
      7 N         139.1605  141.3224  165.2623 N.3     1  UNL1       -0.2710
      8 C         140.3108  142.0176  165.9281 C.3     1  UNL1        0.0896
      9 C         140.8184  141.5281  167.2519 C.3     1  UNL1        0.0897
     10 N         140.1756  140.3433  167.9100 N.3     1  UNL1       -0.2682
     11 C         139.0252  139.6481  167.2443 C.3     1  UNL1        0.0897
     12 C         138.5177  140.1377  165.9204 C.3     1  UNL1        0.0896
     13 C         140.6832  139.8537  169.2340 C.3     1  UNL1        0.1046
     14 C         140.0172  140.2966  170.5029 C.3     1  UNL1        0.1593
     15 O         140.6067  141.4165  171.3081 O.3     1  UNL1       -0.3548
     16 C         141.1738  142.6203  170.6158 C.3     1  UNL1        0.1154
     17 C         142.6592  142.7739  170.4747 C.3     1  UNL1        0.0320
     18 C         140.2554  143.6704  170.0646 C.3     1  UNL1        0.0320
     19 C         138.6600  140.3337  163.6841 C.3     1  UNL1        0.1143
     20 C         139.4205  138.8383  161.7004 C.2     1  UNL1        0.2304
     21 O         137.9862  138.5732  161.3504 O.2     1  UNL1       -0.2745
     22 N         139.7574  139.7185  162.8673 N.am    1  UNL1       -0.2425
     23 C         141.1917  139.9836  163.2173 C.ar    1  UNL1        0.1373
     24 C         141.9438  141.0785  162.5204 C.ar    1  UNL1        0.0347
     25 C         143.3781  141.3436  162.8704 C.ar    1  UNL1        0.0044
     26 C         144.0603  140.5137  163.9173 C.ar    1  UNL1        0.0232
     27 C         143.3082  139.4189  164.6141 C.ar    1  UNL1        0.1540
     28 N         141.8740  139.1537  164.2642 N.ar    1  UNL1       -0.2263
     29 C         143.9905  138.5890  165.6611 C.3     1  UNL1        0.4349
     30 F         144.6727  137.7591  166.7079 F       1  UNL1       -0.1644
     31 F         145.3157  138.8618  165.0136 F       1  UNL1       -0.1644
     32 F         142.6652  138.3162  166.3085 F       1  UNL1       -0.1644
     33 C         140.7827  138.7151  159.4915 C.3     1  UNL1        0.0101
     34 C         140.5178  138.2230  160.8835 C.3     1  UNL1        0.0857
@<TRIPOS>BOND
     1    33    34    1
     2    34    20    1
     3    20    21    2
     4    20    22   am
     5    22    19    1
     6    19     1    1
     7     1     7    1
     8     7     8    1
     9     8     9    1
    10     9    10    1
    11    10    13    1
    12    13    14    1
    13    14    15    1
    14    15    16    1
    15    16    17    1
    16    16    18    1
    17    10    11    1
    18    11    12    1
    19     1     2    1
    20     2     3    1
    21     3     4    1
    22     4     5    1
    23     5     6    1
    24    22    23    1
    25    23    24   ar
    26    24    25   ar
    27    25    26   ar
    28    26    27   ar
    29    27    29    1
    30    29    30    1
    31    29    31    1
    32    29    32    1
    33    27    28   ar
    34     6     1    1
    35    28    23   ar
    36    12     7    1
