@<TRIPOS>MOLECULE
*****
 24 27 0 0 0
SMALL
GASTEIGER

@<TRIPOS>ATOM
      1 O         142.1227  137.6436  165.1747 O.2     1  UNL1       -0.2523
      2 C         141.3090  137.7701  163.9210 C.2     1  UNL1        0.3076
      3 N         139.8134  137.7000  163.8297 N.am    1  UNL1       -0.2609
      4 C         139.4281  137.8755  162.3906 C.3     1  UNL1        0.1165
      5 C         140.6856  138.0542  161.5926 C.3     1  UNL1        0.1168
      6 N         141.8481  137.9890  162.5384 N.am    1  UNL1       -0.2582
      7 C         138.8689  137.4910  164.9761 C.3     1  UNL1        0.1123
      8 C         138.5601  138.6238  165.9095 C.3     1  UNL1        0.0944
      9 N         138.6108  140.0388  165.4142 N.3     1  UNL1       -0.2637
     10 C         137.8152  140.6031  164.2747 C.3     1  UNL1        0.0992
     11 C         138.1786  142.0510  164.1277 C.ar    1  UNL1       -0.0088
     12 C         137.7124  143.1111  163.1745 C.ar    1  UNL1       -0.0032
     13 C         138.2664  144.5017  163.2699 C.ar    1  UNL1       -0.0003
     14 C         139.2867  144.8322  164.3186 C.ar    1  UNL1       -0.0003
     15 C         139.7529  143.7721  165.2719 C.ar    1  UNL1       -0.0032
     16 C         139.1989  142.3815  165.1764 C.ar    1  UNL1       -0.0088
     17 C         139.4660  141.1379  165.9715 C.3     1  UNL1        0.0992
     18 C         143.2954  138.1198  162.1668 C.3     1  UNL1        0.1217
     19 C         144.0429  139.3785  162.4939 C.ar    1  UNL1       -0.0023
     20 C         144.0910  140.5016  161.5009 C.ar    1  UNL1       -0.0026
     21 C         144.8386  141.7603  161.8279 C.ar    1  UNL1       -0.0003
     22 C         145.5379  141.8957  163.1479 C.ar    1  UNL1       -0.0000
     23 C         145.4899  140.7726  164.1410 C.ar    1  UNL1       -0.0003
     24 C         144.7423  139.5139  163.8139 C.ar    1  UNL1       -0.0026
@<TRIPOS>BOND
     1     1     2    2
     2     2     3   am
     3     3     7    1
     4     7     8    1
     5     8     9    1
     6     9    10    1
     7    10    11    1
     8    11    12   ar
     9    12    13   ar
    10    13    14   ar
    11    14    15   ar
    12    15    16   ar
    13    16    17    1
    14     3     4    1
    15     4     5    1
    16     5     6    1
    17     6    18    1
    18    18    19    1
    19    19    20   ar
    20    20    21   ar
    21    21    22   ar
    22    22    23   ar
    23    23    24   ar
    24     6     2   am
    25    24    19   ar
    26    17     9    1
    27    16    11   ar
@<TRIPOS>MOLECULE
*****
 24 27 0 0 0
SMALL
GASTEIGER

@<TRIPOS>ATOM
      1 O         138.2396  143.0387  160.7019 O.2     1  UNL1       -0.2523
      2 C         138.3991  143.4999  162.1203 C.2     1  UNL1        0.3076
      3 N         139.0733  144.7635  162.5660 N.am    1  UNL1       -0.2609
      4 C         139.0032  144.8230  164.0633 C.3     1  UNL1        0.1165
      5 C         138.2857  143.5960  164.5427 C.3     1  UNL1        0.1168
      6 N         137.9123  142.7783  163.3419 N.am    1  UNL1       -0.2582
      7 C         139.7063  145.7878  161.6716 C.3     1  UNL1        0.1123
      8 C         140.9811  145.4673  160.9491 C.3     1  UNL1        0.0944
      9 N         142.0366  144.6401  161.6211 N.3     1  UNL1       -0.2637
     10 C         142.8071  143.5157  160.9950 C.3     1  UNL1        0.0992
     11 C         143.7536  142.9727  162.0242 C.ar    1  UNL1       -0.0088
     12 C         144.7604  141.8620  161.9751 C.ar    1  UNL1       -0.0032
     13 C         145.5816  141.5399  163.1883 C.ar    1  UNL1       -0.0003
     14 C         145.3960  142.3287  164.4506 C.ar    1  UNL1       -0.0003
     15 C         144.3892  143.4395  164.4997 C.ar    1  UNL1       -0.0032
     16 C         143.5680  143.7615  163.2865 C.ar    1  UNL1       -0.0088
     17 C         142.5068  144.7919  163.0374 C.3     1  UNL1        0.0992
     18 C         137.1807  141.4691  163.3598 C.3     1  UNL1        0.1217
     19 C         137.8898  140.2194  163.7903 C.ar    1  UNL1       -0.0023
     20 C         138.2071  139.9986  165.2396 C.ar    1  UNL1       -0.0026
     21 C         138.9162  138.7489  165.6702 C.ar    1  UNL1       -0.0003
     22 C         139.3081  137.7201  164.6515 C.ar    1  UNL1       -0.0000
     23 C         138.9909  137.9408  163.2021 C.ar    1  UNL1       -0.0003
     24 C         138.2817  139.1906  162.7715 C.ar    1  UNL1       -0.0026
@<TRIPOS>BOND
     1     1     2    2
     2     2     3   am
     3     3     7    1
     4     7     8    1
     5     8     9    1
     6     9    10    1
     7    10    11    1
     8    11    12   ar
     9    12    13   ar
    10    13    14   ar
    11    14    15   ar
    12    15    16   ar
    13    16    17    1
    14     3     4    1
    15     4     5    1
    16     5     6    1
    17     6    18    1
    18    18    19    1
    19    19    20   ar
    20    20    21   ar
    21    21    22   ar
    22    22    23   ar
    23    23    24   ar
    24     6     2   am
    25    24    19   ar
    26    17     9    1
    27    16    11   ar
@<TRIPOS>MOLECULE
*****
 24 27 0 0 0
SMALL
GASTEIGER

@<TRIPOS>ATOM
      1 O         140.6054  142.1715  162.1009 O.2     1  UNL1       -0.2523
      2 C         139.8232  143.0313  163.0490 C.2     1  UNL1        0.3076
      3 N         140.2524  144.3625  163.5909 N.am    1  UNL1       -0.2609
      4 C         139.1688  144.8648  164.4985 C.3     1  UNL1        0.1165
      5 C         138.0699  143.8440  164.5174 C.3     1  UNL1        0.1168
      6 N         138.4743  142.7108  163.6216 N.am    1  UNL1       -0.2582
      7 C         141.5393  145.0676  163.2799 C.3     1  UNL1        0.1123
      8 C         142.8082  144.6478  163.9608 C.3     1  UNL1        0.0944
      9 N         142.9279  143.2693  164.5399 N.3     1  UNL1       -0.2637
     10 C         143.6830  142.1221  163.9368 C.3     1  UNL1        0.0992
     11 C         143.5353  140.9397  164.8480 C.ar    1  UNL1       -0.0088
     12 C         144.0622  139.5377  164.7663 C.ar    1  UNL1       -0.0032
     13 C         143.7426  138.5521  165.8510 C.ar    1  UNL1       -0.0003
     14 C         142.8962  138.9686  167.0172 C.ar    1  UNL1       -0.0003
     15 C         142.3693  140.3706  167.0989 C.ar    1  UNL1       -0.0032
     16 C         142.6889  141.3561  166.0142 C.ar    1  UNL1       -0.0088
     17 C         142.3135  142.7959  165.8238 C.3     1  UNL1        0.0992
     18 C         137.6709  141.4744  163.3467 C.3     1  UNL1        0.1217
     19 C         138.1157  140.1527  163.8991 C.ar    1  UNL1       -0.0023
     20 C         138.4787  139.0344  162.9677 C.ar    1  UNL1       -0.0026
     21 C         138.9235  137.7126  163.5200 C.ar    1  UNL1       -0.0003
     22 C         139.0054  137.5092  165.0039 C.ar    1  UNL1       -0.0000
     23 C         138.6425  138.6275  165.9354 C.ar    1  UNL1       -0.0003
     24 C         138.1977  139.9493  165.3830 C.ar    1  UNL1       -0.0026
@<TRIPOS>BOND
     1     1     2    2
     2     2     3   am
     3     3     7    1
     4     7     8    1
     5     8     9    1
     6     9    10    1
     7    10    11    1
     8    11    12   ar
     9    12    13   ar
    10    13    14   ar
    11    14    15   ar
    12    15    16   ar
    13    16    17    1
    14     3     4    1
    15     4     5    1
    16     5     6    1
    17     6    18    1
    18    18    19    1
    19    19    20   ar
    20    20    21   ar
    21    21    22   ar
    22    22    23   ar
    23    23    24   ar
    24     6     2   am
    25    24    19   ar
    26    17     9    1
    27    16    11   ar
@<TRIPOS>MOLECULE
*****
 24 27 0 0 0
SMALL
GASTEIGER

@<TRIPOS>ATOM
      1 O         140.8437  141.0216  161.9527 O.2     1  UNL1       -0.2523
      2 C         140.2646  139.7348  162.4616 C.2     1  UNL1        0.3076
      3 N         140.9423  138.3967  162.4482 N.am    1  UNL1       -0.2609
      4 C         140.0026  137.3952  163.0516 C.3     1  UNL1        0.1165
      5 C         138.7442  138.1144  163.4380 C.3     1  UNL1        0.1168
      6 N         138.9061  139.5604  163.0733 N.am    1  UNL1       -0.2582
      7 C         142.3180  138.1104  161.9235 C.3     1  UNL1        0.1123
      8 C         143.5235  138.5184  162.7174 C.3     1  UNL1        0.0944
      9 N         143.3533  139.2151  164.0348 N.3     1  UNL1       -0.2637
     10 C         143.0507  138.5563  165.3480 C.3     1  UNL1        0.0992
     11 C         142.9662  139.6269  166.3952 C.ar    1  UNL1       -0.0088
     12 C         142.6937  139.5700  167.8691 C.ar    1  UNL1       -0.0032
     13 C         142.6714  140.8336  168.6770 C.ar    1  UNL1       -0.0003
     14 C         142.9217  142.1541  168.0110 C.ar    1  UNL1       -0.0003
     15 C         143.1942  142.2111  166.5371 C.ar    1  UNL1       -0.0032
     16 C         143.2165  140.9475  165.7292 C.ar    1  UNL1       -0.0088
     17 C         143.4557  140.6929  164.2704 C.3     1  UNL1        0.0992
     18 C         137.8883  140.6419  163.2835 C.3     1  UNL1        0.1217
     19 C         138.2799  141.9174  163.9688 C.ar    1  UNL1       -0.0023
     20 C         137.7123  143.2247  163.5014 C.ar    1  UNL1       -0.0026
     21 C         138.1038  144.5003  164.1867 C.ar    1  UNL1       -0.0003
     22 C         139.0630  144.4684  165.3395 C.ar    1  UNL1       -0.0000
     23 C         139.6306  143.1611  165.8071 C.ar    1  UNL1       -0.0003
     24 C         139.2390  141.8855  165.1217 C.ar    1  UNL1       -0.0026
@<TRIPOS>BOND
     1     1     2    2
     2     2     3   am
     3     3     7    1
     4     7     8    1
     5     8     9    1
     6     9    10    1
     7    10    11    1
     8    11    12   ar
     9    12    13   ar
    10    13    14   ar
    11    14    15   ar
    12    15    16   ar
    13    16    17    1
    14     3     4    1
    15     4     5    1
    16     5     6    1
    17     6    18    1
    18    18    19    1
    19    19    20   ar
    20    20    21   ar
    21    21    22   ar
    22    22    23   ar
    23    23    24   ar
    24     6     2   am
    25    24    19   ar
    26    17     9    1
    27    16    11   ar
@<TRIPOS>MOLECULE
*****
 24 27 0 0 0
SMALL
GASTEIGER

@<TRIPOS>ATOM
      1 O         142.0517  140.6924  161.9943 O.2     1  UNL1       -0.2523
      2 C         143.2147  140.4343  162.9058 C.2     1  UNL1        0.3076
      3 N         144.4672  141.2552  162.9910 N.am    1  UNL1       -0.2609
      4 C         145.3561  140.6383  164.0300 C.3     1  UNL1        0.1165
      5 C         144.6527  139.4361  164.5869 C.3     1  UNL1        0.1168
      6 N         143.3293  139.3100  163.8921 N.am    1  UNL1       -0.2582
      7 C         144.7767  142.4783  162.1797 C.3     1  UNL1        0.1123
      8 C         144.1887  143.8031  162.5659 C.3     1  UNL1        0.0944
      9 N         142.7391  143.9001  162.9389 N.3     1  UNL1       -0.2637
     10 C         142.1731  143.7610  164.3211 C.3     1  UNL1        0.0992
     11 C         140.6851  143.9281  164.2317 C.ar    1  UNL1       -0.0088
     12 C         139.6066  143.8909  165.2735 C.ar    1  UNL1       -0.0032
     13 C         138.1744  144.0961  164.8779 C.ar    1  UNL1       -0.0003
     14 C         137.8207  144.3385  163.4405 C.ar    1  UNL1       -0.0003
     15 C         138.8992  144.3758  162.3987 C.ar    1  UNL1       -0.0032
     16 C         140.3314  144.1706  162.7943 C.ar    1  UNL1       -0.0088
     17 C         141.6008  144.1532  161.9954 C.3     1  UNL1        0.0992
     18 C         142.3011  138.2465  164.1402 C.3     1  UNL1        0.1217
     19 C         141.0214  138.5898  164.8433 C.ar    1  UNL1       -0.0023
     20 C         139.8587  137.6438  164.7890 C.ar    1  UNL1       -0.0026
     21 C         138.5789  137.9871  165.4921 C.ar    1  UNL1       -0.0003
     22 C         138.4619  139.2765  166.2495 C.ar    1  UNL1       -0.0000
     23 C         139.6246  140.2227  166.3038 C.ar    1  UNL1       -0.0003
     24 C         140.9044  139.8793  165.6006 C.ar    1  UNL1       -0.0026
@<TRIPOS>BOND
     1     1     2    2
     2     2     3   am
     3     3     7    1
     4     7     8    1
     5     8     9    1
     6     9    10    1
     7    10    11    1
     8    11    12   ar
     9    12    13   ar
    10    13    14   ar
    11    14    15   ar
    12    15    16   ar
    13    16    17    1
    14     3     4    1
    15     4     5    1
    16     5     6    1
    17     6    18    1
    18    18    19    1
    19    19    20   ar
    20    20    21   ar
    21    21    22   ar
    22    22    23   ar
    23    23    24   ar
    24     6     2   am
    25    24    19   ar
    26    17     9    1
    27    16    11   ar
@<TRIPOS>MOLECULE
*****
 24 27 0 0 0
SMALL
GASTEIGER

@<TRIPOS>ATOM
      1 O         139.2582  138.3492  165.1855 O.2     1  UNL1       -0.2523
      2 C         140.2184  138.1774  164.0460 C.2     1  UNL1        0.3076
      3 N         139.8529  138.0478  162.5970 N.am    1  UNL1       -0.2609
      4 C         141.1213  137.8953  161.8108 C.3     1  UNL1        0.1165
      5 C         142.2707  137.9306  162.7740 C.3     1  UNL1        0.1168
      6 N         141.7127  138.1050  164.1554 N.am    1  UNL1       -0.2582
      7 C         138.4630  138.0673  162.0331 C.3     1  UNL1        0.1123
      8 C         137.8303  139.3700  161.6427 C.3     1  UNL1        0.0944
      9 N         138.2250  140.6356  162.3444 N.3     1  UNL1       -0.2637
     10 C         137.3593  141.4368  163.2710 C.3     1  UNL1        0.0992
     11 C         138.1539  142.6186  163.7420 C.ar    1  UNL1       -0.0088
     12 C         137.8173  143.7500  164.6675 C.ar    1  UNL1       -0.0032
     13 C         138.8376  144.8107  164.9574 C.ar    1  UNL1       -0.0003
     14 C         140.1944  144.7399  164.3219 C.ar    1  UNL1       -0.0003
     15 C         140.5311  143.6085  163.3964 C.ar    1  UNL1       -0.0032
     16 C         139.5108  142.5478  163.1065 C.ar    1  UNL1       -0.0088
     17 C         139.5547  141.3223  162.2427 C.3     1  UNL1        0.0992
     18 C         142.5091  138.1917  165.4235 C.3     1  UNL1        0.1217
     19 C         142.5769  139.4854  166.1796 C.ar    1  UNL1       -0.0023
     20 C         142.6340  139.4759  167.6784 C.ar    1  UNL1       -0.0026
     21 C         142.7018  140.7696  168.4346 C.ar    1  UNL1       -0.0003
     22 C         142.7126  142.0727  167.6918 C.ar    1  UNL1       -0.0000
     23 C         142.6556  142.0823  166.1929 C.ar    1  UNL1       -0.0003
     24 C         142.5877  140.7885  165.4368 C.ar    1  UNL1       -0.0026
@<TRIPOS>BOND
     1     1     2    2
     2     2     3   am
     3     3     7    1
     4     7     8    1
     5     8     9    1
     6     9    10    1
     7    10    11    1
     8    11    12   ar
     9    12    13   ar
    10    13    14   ar
    11    14    15   ar
    12    15    16   ar
    13    16    17    1
    14     3     4    1
    15     4     5    1
    16     5     6    1
    17     6    18    1
    18    18    19    1
    19    19    20   ar
    20    20    21   ar
    21    21    22   ar
    22    22    23   ar
    23    23    24   ar
    24     6     2   am
    25    24    19   ar
    26    17     9    1
    27    16    11   ar
@<TRIPOS>MOLECULE
*****
 24 27 0 0 0
SMALL
GASTEIGER

@<TRIPOS>ATOM
      1 O         141.2645  141.3451  161.7093 O.2     1  UNL1       -0.2523
      2 C         142.5753  142.0160  161.9950 C.2     1  UNL1        0.3076
      3 N         143.9078  141.3363  162.1066 N.am    1  UNL1       -0.2609
      4 C         144.9398  142.3847  162.3999 C.3     1  UNL1        0.1165
      5 C         144.2450  143.7123  162.4695 C.3     1  UNL1        0.1168
      6 N         142.7837  143.4844  162.2193 N.am    1  UNL1       -0.2582
      7 C         144.1635  139.8664  161.9521 C.3     1  UNL1        0.1123
      8 C         144.0171  138.9516  163.1317 C.3     1  UNL1        0.0944
      9 N         142.7304  138.9209  163.9020 N.3     1  UNL1       -0.2637
     10 C         142.3339  139.8692  164.9944 C.3     1  UNL1        0.0992
     11 C         140.9726  139.4710  165.4826 C.ar    1  UNL1       -0.0088
     12 C         140.0807  140.0417  166.5450 C.ar    1  UNL1       -0.0032
     13 C         138.7439  139.4178  166.8167 C.ar    1  UNL1       -0.0003
     14 C         138.2991  138.2233  166.0259 C.ar    1  UNL1       -0.0003
     15 C         139.1910  137.6526  164.9636 C.ar    1  UNL1       -0.0032
     16 C         140.5278  138.2764  164.6919 C.ar    1  UNL1       -0.0088
     17 C         141.6141  137.9365  163.7150 C.3     1  UNL1        0.0992
     18 C         141.7180  144.5397  162.1973 C.3     1  UNL1        0.1217
     19 C         140.4849  144.3780  163.0359 C.ar    1  UNL1       -0.0023
     20 C         140.6079  144.1119  164.5069 C.ar    1  UNL1       -0.0026
     21 C         139.3749  143.9502  165.3456 C.ar    1  UNL1       -0.0003
     22 C         138.0187  144.0546  164.7132 C.ar    1  UNL1       -0.0000
     23 C         137.8956  144.3207  163.2421 C.ar    1  UNL1       -0.0003
     24 C         139.1288  144.4824  162.4034 C.ar    1  UNL1       -0.0026
@<TRIPOS>BOND
     1     1     2    2
     2     2     3   am
     3     3     7    1
     4     7     8    1
     5     8     9    1
     6     9    10    1
     7    10    11    1
     8    11    12   ar
     9    12    13   ar
    10    13    14   ar
    11    14    15   ar
    12    15    16   ar
    13    16    17    1
    14     3     4    1
    15     4     5    1
    16     5     6    1
    17     6    18    1
    18    18    19    1
    19    19    20   ar
    20    20    21   ar
    21    21    22   ar
    22    22    23   ar
    23    23    24   ar
    24     6     2   am
    25    24    19   ar
    26    17     9    1
    27    16    11   ar
@<TRIPOS>MOLECULE
*****
 24 27 0 0 0
SMALL
GASTEIGER

@<TRIPOS>ATOM
      1 O         140.3193  143.6588  165.6815 O.2     1  UNL1       -0.2523
      2 C         141.0942  143.9167  164.4233 C.2     1  UNL1        0.3076
      3 N         140.5372  144.4582  163.1401 N.am    1  UNL1       -0.2609
      4 C         141.6610  144.5546  162.1512 C.3     1  UNL1        0.1165
      5 C         142.9124  144.0726  162.8233 C.3     1  UNL1        0.1168
      6 N         142.5622  143.6784  164.2275 N.am    1  UNL1       -0.2582
      7 C         139.1075  144.8368  162.8898 C.3     1  UNL1        0.1123
      8 C         138.0714  143.7692  162.6988 C.3     1  UNL1        0.0944
      9 N         138.3074  142.3898  163.2387 N.3     1  UNL1       -0.2637
     10 C         139.0498  141.2865  162.5448 C.3     1  UNL1        0.0992
     11 C         139.0437  140.0863  163.4446 C.ar    1  UNL1       -0.0088
     12 C         139.6212  138.7109  163.2872 C.ar    1  UNL1       -0.0032
     13 C         139.4524  137.6971  164.3797 C.ar    1  UNL1       -0.0003
     14 C         138.7061  138.0586  165.6296 C.ar    1  UNL1       -0.0003
     15 C         138.1286  139.4340  165.7870 C.ar    1  UNL1       -0.0032
     16 C         138.2974  140.4478  164.6945 C.ar    1  UNL1       -0.0088
     17 C         137.8423  141.8714  164.5672 C.3     1  UNL1        0.0992
     18 C         143.5129  143.1404  165.2553 C.3     1  UNL1        0.1217
     19 C         143.1088  141.9808  166.1167 C.ar    1  UNL1       -0.0023
     20 C         143.1012  142.1225  167.6099 C.ar    1  UNL1       -0.0026
     21 C         142.6971  140.9629  168.4714 C.ar    1  UNL1       -0.0003
     22 C         142.3005  139.6617  167.8395 C.ar    1  UNL1       -0.0000
     23 C         142.3080  139.5199  166.3462 C.ar    1  UNL1       -0.0003
     24 C         142.7122  140.6795  165.4848 C.ar    1  UNL1       -0.0026
@<TRIPOS>BOND
     1     1     2    2
     2     2     3   am
     3     3     7    1
     4     7     8    1
     5     8     9    1
     6     9    10    1
     7    10    11    1
     8    11    12   ar
     9    12    13   ar
    10    13    14   ar
    11    14    15   ar
    12    15    16   ar
    13    16    17    1
    14     3     4    1
    15     4     5    1
    16     5     6    1
    17     6    18    1
    18    18    19    1
    19    19    20   ar
    20    20    21   ar
    21    21    22   ar
    22    22    23   ar
    23    23    24   ar
    24     6     2   am
    25    24    19   ar
    26    17     9    1
    27    16    11   ar
@<TRIPOS>MOLECULE
*****
 24 27 0 0 0
SMALL
GASTEIGER

@<TRIPOS>ATOM
      1 O         138.7846  140.3436  165.5903 O.2     1  UNL1       -0.2523
      2 C         138.5578  139.6631  164.2730 C.2     1  UNL1        0.3076
      3 N         139.0309  138.2903  163.8968 N.am    1  UNL1       -0.2609
      4 C         138.5835  138.0146  162.4918 C.3     1  UNL1        0.1165
      5 C         137.8339  139.2172  161.9997 C.3     1  UNL1        0.1168
      6 N         137.8180  140.2359  163.1005 N.am    1  UNL1       -0.2582
      7 C         139.8138  137.3569  164.7719 C.3     1  UNL1        0.1123
      8 C         141.2872  137.1815  164.5521 C.3     1  UNL1        0.0944
      9 N         142.1769  138.3837  164.4380 N.3     1  UNL1       -0.2637
     10 C         143.2109  138.6179  163.3769 C.3     1  UNL1        0.0992
     11 C         143.8619  139.9418  163.6481 C.ar    1  UNL1       -0.0088
     12 C         144.9482  140.6910  162.9349 C.ar    1  UNL1       -0.0032
     13 C         145.4028  142.0241  163.4505 C.ar    1  UNL1       -0.0003
     14 C         144.7711  142.6082  164.6793 C.ar    1  UNL1       -0.0003
     15 C         143.6848  141.8591  165.3924 C.ar    1  UNL1       -0.0032
     16 C         143.2302  140.5259  164.8768 C.ar    1  UNL1       -0.0088
     17 C         142.1888  139.5629  165.3650 C.3     1  UNL1        0.0992
     18 C         137.1752  141.5898  163.0396 C.3     1  UNL1        0.1217
     19 C         138.0163  142.8256  163.1626 C.ar    1  UNL1       -0.0023
     20 C         138.8208  143.3050  161.9909 C.ar    1  UNL1       -0.0026
     21 C         139.6620  144.5409  162.1138 C.ar    1  UNL1       -0.0003
     22 C         139.6986  145.2973  163.4086 C.ar    1  UNL1       -0.0000
     23 C         138.8941  144.8180  164.5804 C.ar    1  UNL1       -0.0003
     24 C         138.0530  143.5821  164.4573 C.ar    1  UNL1       -0.0026
@<TRIPOS>BOND
     1     1     2    2
     2     2     3   am
     3     3     7    1
     4     7     8    1
     5     8     9    1
     6     9    10    1
     7    10    11    1
     8    11    12   ar
     9    12    13   ar
    10    13    14   ar
    11    14    15   ar
    12    15    16   ar
    13    16    17    1
    14     3     4    1
    15     4     5    1
    16     5     6    1
    17     6    18    1
    18    18    19    1
    19    19    20   ar
    20    20    21   ar
    21    21    22   ar
    22    22    23   ar
    23    23    24   ar
    24     6     2   am
    25    24    19   ar
    26    17     9    1
    27    16    11   ar
