@<TRIPOS>MOLECULE
*****
 38 42 0 0 0
SMALL
GASTEIGER

@<TRIPOS>ATOM
      1 C         139.2881  140.4493  163.3007 C.ar    1  UNL1        0.2227
      2 N         140.4048  141.4109  163.5805 N.ar    1  UNL1       -0.1986
      3 C         140.8072  142.4157  162.5420 C.ar    1  UNL1        0.1376
      4 C         140.0929  142.4588  161.2236 C.ar    1  UNL1        0.0676
      5 C         140.4953  143.4636  160.1851 C.ar    1  UNL1        0.0074
      6 C         139.7811  143.5067  158.8668 C.ar    1  UNL1        0.0193
      7 C         138.6644  142.5451  158.5871 C.ar    1  UNL1        0.0830
      8 N         138.2619  141.5403  159.6256 N.ar    1  UNL1       -0.2264
      9 C         138.9762  141.4972  160.9438 C.ar    1  UNL1        0.1678
     10 N         138.5738  140.4925  161.9824 N.ar    1  UNL1       -0.1944
     11 C         139.9008  137.5412  162.8913 C.3     1  UNL1        0.0242
     12 C         139.1920  137.9906  164.1346 C.3     1  UNL1        0.1052
     13 C         138.7896  136.9859  165.1731 C.3     1  UNL1        0.1619
     14 O         138.0808  137.4352  166.4164 O.3     1  UNL1       -0.3502
     15 C         137.7745  138.8892  166.6211 C.3     1  UNL1        0.1637
     16 C         138.1769  139.8939  165.5826 C.3     1  UNL1        0.1256
     17 N         138.8857  139.4446  164.3393 N.pl3   1  UNL1       -0.2747
     18 N         141.9239  143.3773  162.8218 N.pl3   1  UNL1       -0.2897
     19 C         143.3095  143.0815  162.3291 C.3     1  UNL1        0.1242
     20 C         144.4262  144.0431  162.6089 C.3     1  UNL1        0.1636
     21 O         144.1573  145.3005  163.3813 O.3     1  UNL1       -0.3502
     22 C         142.7717  145.5963  163.8740 C.3     1  UNL1        0.1618
     23 C         141.6550  144.6347  163.5942 C.3     1  UNL1        0.1038
     24 C         140.2695  144.9305  164.0869 C.3     1  UNL1        0.0241
     25 C         137.9501  142.5882  157.2687 C.ar    1  UNL1        0.0179
     26 C         138.3756  143.5693  156.2169 C.ar    1  UNL1        0.0015
     27 C         137.6613  143.6125  154.8985 C.ar    1  UNL1        0.0002
     28 C         136.5215  142.6745  154.6321 C.ar    1  UNL1        0.0045
     29 C         136.0960  141.6934  155.6840 C.ar    1  UNL1        0.0534
     30 C         136.8102  141.6503  157.0022 C.ar    1  UNL1        0.0060
     31 C         134.9561  140.7554  155.4175 C.2     1  UNL1        0.2459
     32 O         134.4041  140.6212  154.0293 O.2     1  UNL1       -0.2701
     33 N         134.3682  139.9517  156.5394 N.am    1  UNL1       -0.2985
     34 H         134.7305  140.0398  157.4505 H       1  UNL1        0.1498
     35 C         133.2284  139.0137  156.2729 C.3     1  UNL1        0.1215
     36 C         132.2223  138.7313  157.3489 C.3     1  UNL1        0.1583
     37 O         131.5088  139.8646  158.0247 O.3     1  UNL1       -0.3802
     38 H         132.1460  140.3909  158.5324 H       1  UNL1        0.2105
@<TRIPOS>BOND
     1    12    11    1
     2    12    13    1
     3    13    14    1
     4    14    15    1
     5    15    16    1
     6    16    17    1
     7    17     1    1
     8     1     2   ar
     9     2     3   ar
    10     3    18    1
    11    18    19    1
    12    19    20    1
    13    20    21    1
    14    21    22    1
    15    22    23    1
    16    23    24    1
    17     3     4   ar
    18     4     5   ar
    19     5     6   ar
    20     6     7   ar
    21     7    25    1
    22    25    26   ar
    23    26    27   ar
    24    27    28   ar
    25    28    29   ar
    26    29    31    1
    27    31    32    2
    28    31    33   am
    29    33    35    1
    30    35    36    1
    31    36    37    1
    32    29    30   ar
    33     7     8   ar
    34     8     9   ar
    35     9    10   ar
    36    17    12    1
    37    10     1   ar
    38    23    18    1
    39     9     4   ar
    40    30    25   ar
    41    33    34    1
    42    37    38    1
@<TRIPOS>MOLECULE
*****
 38 42 0 0 0
SMALL
GASTEIGER

@<TRIPOS>ATOM
      1 C         143.2968  139.9173  160.4767 C.ar    1  UNL1        0.2227
      2 N         142.3143  140.9105  159.9307 N.ar    1  UNL1       -0.1986
      3 C         141.5441  140.5954  158.6828 C.ar    1  UNL1        0.1376
      4 C         141.7564  139.2868  157.9807 C.ar    1  UNL1        0.0676
      5 C         140.9862  138.9717  156.7328 C.ar    1  UNL1        0.0074
      6 C         141.1985  137.6632  156.0308 C.ar    1  UNL1        0.0193
      7 C         142.1810  136.6699  156.5768 C.ar    1  UNL1        0.0830
      8 N         142.9512  136.9851  157.8247 N.ar    1  UNL1       -0.2264
      9 C         142.7389  138.2936  158.5267 C.ar    1  UNL1        0.1678
     10 N         143.5091  138.6088  159.7747 N.ar    1  UNL1       -0.1944
     11 C         144.7777  142.5159  160.7094 C.3     1  UNL1        0.0242
     12 C         144.8075  141.5318  161.8410 C.3     1  UNL1        0.1052
     13 C         145.5776  141.8470  163.0890 C.3     1  UNL1        0.1619
     14 O         145.6074  140.8629  164.2206 O.3     1  UNL1       -0.3502
     15 C         144.8670  139.5635  164.1043 C.3     1  UNL1        0.1637
     16 C         144.0968  139.2484  162.8563 C.3     1  UNL1        0.1256
     17 N         144.0671  140.2325  161.7247 N.pl3   1  UNL1       -0.2747
     18 N         140.5616  141.5886  158.1368 N.pl3   1  UNL1       -0.2897
     19 C         141.0184  142.6432  157.1729 C.3     1  UNL1        0.1242
     20 C         140.0359  143.6365  156.6269 C.3     1  UNL1        0.1636
     21 O         138.5966  143.5752  157.0449 O.3     1  UNL1       -0.3502
     22 C         138.1398  142.5206  158.0089 C.3     1  UNL1        0.1618
     23 C         139.1223  141.5273  158.5548 C.3     1  UNL1        0.1038
     24 C         138.6656  140.4728  159.5188 C.3     1  UNL1        0.0241
     25 C         142.3933  135.3614  155.8747 C.ar    1  UNL1        0.0179
     26 C         141.8677  135.1625  154.4840 C.ar    1  UNL1        0.0015
     27 C         142.0800  133.8540  153.7819 C.ar    1  UNL1        0.0002
     28 C         142.8179  132.7444  154.4707 C.ar    1  UNL1        0.0045
     29 C         143.3435  132.9434  155.8615 C.ar    1  UNL1        0.0534
     30 C         143.1312  134.2518  156.5635 C.ar    1  UNL1        0.0060
     31 C         144.0813  131.8338  156.5503 C.2     1  UNL1        0.2459
     32 O         145.5280  131.5885  156.2388 O.2     1  UNL1       -0.2701
     33 N         143.3725  130.9694  157.5506 N.am    1  UNL1       -0.2985
     34 H         142.4230  131.1304  157.7550 H       1  UNL1        0.1498
     35 C         144.1103  129.8599  158.2393 C.3     1  UNL1        0.1215
     36 C         143.3562  128.8470  159.0489 C.3     1  UNL1        0.1583
     37 O         143.8291  128.4845  160.4255 O.3     1  UNL1       -0.3802
     38 H         144.6878  128.0373  160.3651 H       1  UNL1        0.2105
@<TRIPOS>BOND
     1    12    11    1
     2    12    13    1
     3    13    14    1
     4    14    15    1
     5    15    16    1
     6    16    17    1
     7    17     1    1
     8     1     2   ar
     9     2     3   ar
    10     3    18    1
    11    18    19    1
    12    19    20    1
    13    20    21    1
    14    21    22    1
    15    22    23    1
    16    23    24    1
    17     3     4   ar
    18     4     5   ar
    19     5     6   ar
    20     6     7   ar
    21     7    25    1
    22    25    26   ar
    23    26    27   ar
    24    27    28   ar
    25    28    29   ar
    26    29    31    1
    27    31    32    2
    28    31    33   am
    29    33    35    1
    30    35    36    1
    31    36    37    1
    32    29    30   ar
    33     7     8   ar
    34     8     9   ar
    35     9    10   ar
    36    17    12    1
    37    10     1   ar
    38    23    18    1
    39     9     4   ar
    40    30    25   ar
    41    33    34    1
    42    37    38    1
@<TRIPOS>MOLECULE
*****
 38 42 0 0 0
SMALL
GASTEIGER

@<TRIPOS>ATOM
      1 C         144.1384  141.9606  158.8710 C.ar    1  UNL1        0.2227
      2 N         145.1014  142.4961  157.8531 N.ar    1  UNL1       -0.1986
      3 C         145.4440  141.6796  156.6424 C.ar    1  UNL1        0.1376
      4 C         144.8236  140.3275  156.4495 C.ar    1  UNL1        0.0676
      5 C         145.1662  139.5110  155.2387 C.ar    1  UNL1        0.0074
      6 C         144.5459  138.1590  155.0458 C.ar    1  UNL1        0.0193
      7 C         143.5829  137.6236  156.0637 C.ar    1  UNL1        0.0830
      8 N         143.2403  138.4401  157.2744 N.ar    1  UNL1       -0.2264
      9 C         143.8607  139.7920  157.4673 C.ar    1  UNL1        0.1678
     10 N         143.5181  140.6086  158.6781 N.ar    1  UNL1       -0.1944
     11 C         141.5838  143.5317  158.9470 C.3     1  UNL1        0.0242
     12 C         142.5186  143.5627  160.1197 C.3     1  UNL1        0.1052
     13 C         142.1760  144.3792  161.3305 C.3     1  UNL1        0.1619
     14 O         143.1108  144.4102  162.5032 O.3     1  UNL1       -0.3502
     15 C         144.3880  143.6247  162.4652 C.3     1  UNL1        0.1637
     16 C         144.7306  142.8082  161.2545 C.3     1  UNL1        0.1256
     17 N         143.7958  142.7772  160.0817 N.pl3   1  UNL1       -0.2747
     18 N         146.4069  142.2151  155.6246 N.pl3   1  UNL1       -0.2897
     19 C         147.8649  141.8758  155.7201 C.3     1  UNL1        0.1242
     20 C         148.8278  142.4112  154.7023 C.3     1  UNL1        0.1636
     21 O         148.3328  143.2861  153.5889 O.3     1  UNL1       -0.3502
     22 C         146.8748  143.6254  153.4933 C.3     1  UNL1        0.1618
     23 C         145.9118  143.0899  154.5112 C.3     1  UNL1        0.1038
     24 C         144.4539  143.4293  154.4156 C.3     1  UNL1        0.0241
     25 C         142.9626  136.2715  155.8707 C.ar    1  UNL1        0.0179
     26 C         141.7188  136.1279  155.0446 C.ar    1  UNL1        0.0015
     27 C         141.0985  134.7759  154.8517 C.ar    1  UNL1        0.0002
     28 C         141.7219  133.5674  155.4849 C.ar    1  UNL1        0.0045
     29 C         142.9657  133.7110  156.3110 C.ar    1  UNL1        0.0534
     30 C         143.5860  135.0630  156.5039 C.ar    1  UNL1        0.0060
     31 C         143.5892  132.5025  156.9442 C.2     1  UNL1        0.2459
     32 O         144.8146  132.6504  157.7965 O.2     1  UNL1       -0.2701
     33 N         142.9872  131.1462  156.7249 N.am    1  UNL1       -0.2985
     34 H         142.1830  131.0491  156.1655 H       1  UNL1        0.1498
     35 C         143.6107  129.9377  157.3581 C.3     1  UNL1        0.1215
     36 C         144.6904  129.1862  156.6375 C.3     1  UNL1        0.1583
     37 O         145.2297  129.7092  155.3391 O.3     1  UNL1       -0.3802
     38 H         144.5334  129.6796  154.6644 H       1  UNL1        0.2105
@<TRIPOS>BOND
     1    12    11    1
     2    12    13    1
     3    13    14    1
     4    14    15    1
     5    15    16    1
     6    16    17    1
     7    17     1    1
     8     1     2   ar
     9     2     3   ar
    10     3    18    1
    11    18    19    1
    12    19    20    1
    13    20    21    1
    14    21    22    1
    15    22    23    1
    16    23    24    1
    17     3     4   ar
    18     4     5   ar
    19     5     6   ar
    20     6     7   ar
    21     7    25    1
    22    25    26   ar
    23    26    27   ar
    24    27    28   ar
    25    28    29   ar
    26    29    31    1
    27    31    32    2
    28    31    33   am
    29    33    35    1
    30    35    36    1
    31    36    37    1
    32    29    30   ar
    33     7     8   ar
    34     8     9   ar
    35     9    10   ar
    36    17    12    1
    37    10     1   ar
    38    23    18    1
    39     9     4   ar
    40    30    25   ar
    41    33    34    1
    42    37    38    1
@<TRIPOS>MOLECULE
*****
 38 42 0 0 0
SMALL
GASTEIGER

@<TRIPOS>ATOM
      1 C         141.2529  138.6988  158.2584 C.ar    1  UNL1        0.2227
      2 N         141.3018  140.1229  157.7898 N.ar    1  UNL1       -0.1986
      3 C         140.9770  141.2368  158.7404 C.ar    1  UNL1        0.1376
      4 C         140.6032  140.9267  160.1596 C.ar    1  UNL1        0.0676
      5 C         140.2784  142.0406  161.1102 C.ar    1  UNL1        0.0074
      6 C         139.9046  141.7305  162.5293 C.ar    1  UNL1        0.0193
      7 C         139.8557  140.3064  162.9980 C.ar    1  UNL1        0.0830
      8 N         140.1805  139.1925  162.0474 N.ar    1  UNL1       -0.2264
      9 C         140.5543  139.5026  160.6282 C.ar    1  UNL1        0.1678
     10 N         140.8791  138.3887  159.6776 N.ar    1  UNL1       -0.1944
     11 C         139.2610  137.8805  156.1697 C.3     1  UNL1        0.0242
     12 C         140.5818  137.1757  156.2635 C.3     1  UNL1        0.1052
     13 C         140.9067  136.0618  155.3129 C.3     1  UNL1        0.1619
     14 O         142.2275  135.3571  155.4066 O.3     1  UNL1       -0.3502
     15 C         143.2234  135.7662  156.4510 C.3     1  UNL1        0.1637
     16 C         142.8985  136.8801  157.4015 C.3     1  UNL1        0.1256
     17 N         141.5777  137.5849  157.3078 N.pl3   1  UNL1       -0.2747
     18 N         141.0259  142.6609  158.2718 N.pl3   1  UNL1       -0.2897
     19 C         139.8009  143.3013  157.6893 C.3     1  UNL1        0.1242
     20 C         139.8498  144.7254  157.2207 C.3     1  UNL1        0.1636
     21 O         141.1237  145.5091  157.3345 O.3     1  UNL1       -0.3502
     22 C         142.3488  144.8687  157.9170 C.3     1  UNL1        0.1618
     23 C         142.2998  143.4446  158.3857 C.3     1  UNL1        0.1038
     24 C         143.5248  142.8042  158.9681 C.3     1  UNL1        0.0241
     25 C         139.4820  139.9963  164.4172 C.ar    1  UNL1        0.0179
     26 C         138.6063  138.8171  164.7216 C.ar    1  UNL1        0.0015
     27 C         138.2326  138.5070  166.1409 C.ar    1  UNL1        0.0002
     28 C         138.7345  139.3761  167.2556 C.ar    1  UNL1        0.0045
     29 C         139.6101  140.5554  166.9512 C.ar    1  UNL1        0.0534
     30 C         139.9839  140.8654  165.5320 C.ar    1  UNL1        0.0060
     31 C         140.1120  141.4245  168.0659 C.2     1  UNL1        0.2459
     32 O         140.7795  142.7314  167.7556 O.2     1  UNL1       -0.2701
     33 N         139.9465  140.9866  169.4911 N.am    1  UNL1       -0.2985
     34 H         139.5084  140.1288  169.6947 H       1  UNL1        0.1498
     35 C         140.4484  141.8558  170.6058 C.3     1  UNL1        0.1215
     36 C         141.8744  141.7468  171.0579 C.3     1  UNL1        0.1583
     37 O         142.2434  140.7888  172.1516 O.3     1  UNL1       -0.3802
     38 H         141.8309  141.0724  172.9825 H       1  UNL1        0.2105
@<TRIPOS>BOND
     1    12    11    1
     2    12    13    1
     3    13    14    1
     4    14    15    1
     5    15    16    1
     6    16    17    1
     7    17     1    1
     8     1     2   ar
     9     2     3   ar
    10     3    18    1
    11    18    19    1
    12    19    20    1
    13    20    21    1
    14    21    22    1
    15    22    23    1
    16    23    24    1
    17     3     4   ar
    18     4     5   ar
    19     5     6   ar
    20     6     7   ar
    21     7    25    1
    22    25    26   ar
    23    26    27   ar
    24    27    28   ar
    25    28    29   ar
    26    29    31    1
    27    31    32    2
    28    31    33   am
    29    33    35    1
    30    35    36    1
    31    36    37    1
    32    29    30   ar
    33     7     8   ar
    34     8     9   ar
    35     9    10   ar
    36    17    12    1
    37    10     1   ar
    38    23    18    1
    39     9     4   ar
    40    30    25   ar
    41    33    34    1
    42    37    38    1
@<TRIPOS>MOLECULE
*****
 38 42 0 0 0
SMALL
GASTEIGER

@<TRIPOS>ATOM
      1 C         140.8644  141.9744  161.6379 C.ar    1  UNL1        0.2227
      2 N         141.5627  141.3713  162.8206 N.ar    1  UNL1       -0.1986
      3 C         142.2938  140.0695  162.6762 C.ar    1  UNL1        0.1376
      4 C         142.3267  139.3708  161.3492 C.ar    1  UNL1        0.0676
      5 C         143.0578  138.0691  161.2049 C.ar    1  UNL1        0.0074
      6 C         143.0906  137.3705  159.8780 C.ar    1  UNL1        0.0193
      7 C         142.3923  137.9737  158.6953 C.ar    1  UNL1        0.0830
      8 N         141.6612  139.2754  158.8397 N.ar    1  UNL1       -0.2264
      9 C         141.6284  139.9740  160.1666 C.ar    1  UNL1        0.1678
     10 N         140.8972  141.2758  160.3110 N.ar    1  UNL1       -0.1944
     11 C         138.2242  142.0624  163.0599 C.3     1  UNL1        0.0242
     12 C         138.8132  143.3202  162.4933 C.3     1  UNL1        0.1052
     13 C         138.0821  144.6219  162.6376 C.3     1  UNL1        0.1619
     14 O         138.6711  145.8798  162.0710 O.3     1  UNL1       -0.3502
     15 C         139.9911  145.8358  161.3601 C.3     1  UNL1        0.1637
     16 C         140.7222  144.5340  161.2157 C.3     1  UNL1        0.1256
     17 N         140.1332  143.2762  161.7823 N.pl3   1  UNL1       -0.2747
     18 N         142.9921  139.4664  163.8589 N.pl3   1  UNL1       -0.2897
     19 C         144.4617  139.6917  164.0573 C.3     1  UNL1        0.1242
     20 C         145.1600  139.0885  165.2399 C.3     1  UNL1        0.1636
     21 O         144.3887  138.2601  166.2241 O.3     1  UNL1       -0.3502
     22 C         142.9190  138.0348  166.0257 C.3     1  UNL1        0.1618
     23 C         142.2207  138.6379  164.8431 C.3     1  UNL1        0.1038
     24 C         140.7511  138.4126  164.6447 C.3     1  UNL1        0.0241
     25 C         142.4252  137.2750  157.3683 C.ar    1  UNL1        0.0179
     26 C         142.1117  138.0340  156.1131 C.ar    1  UNL1        0.0015
     27 C         142.1445  137.3353  154.7861 C.ar    1  UNL1        0.0002
     28 C         142.4909  135.8776  154.7144 C.ar    1  UNL1        0.0045
     29 C         142.8044  135.1186  155.9697 C.ar    1  UNL1        0.0534
     30 C         142.7715  135.8173  157.2966 C.ar    1  UNL1        0.0060
     31 C         143.1507  133.6609  155.8980 C.2     1  UNL1        0.2459
     32 O         142.0954  132.6558  155.5431 O.2     1  UNL1       -0.2701
     33 N         144.5526  133.2083  156.1812 N.am    1  UNL1       -0.2985
     34 H         145.2452  133.8680  156.4142 H       1  UNL1        0.1498
     35 C         144.8989  131.7506  156.1095 C.3     1  UNL1        0.1215
     36 C         144.6211  130.8552  157.2804 C.3     1  UNL1        0.1583
     37 O         143.2624  130.8513  157.9159 O.3     1  UNL1       -0.3802
     38 H         143.0956  131.7135  158.3277 H       1  UNL1        0.2105
@<TRIPOS>BOND
     1    12    11    1
     2    12    13    1
     3    13    14    1
     4    14    15    1
     5    15    16    1
     6    16    17    1
     7    17     1    1
     8     1     2   ar
     9     2     3   ar
    10     3    18    1
    11    18    19    1
    12    19    20    1
    13    20    21    1
    14    21    22    1
    15    22    23    1
    16    23    24    1
    17     3     4   ar
    18     4     5   ar
    19     5     6   ar
    20     6     7   ar
    21     7    25    1
    22    25    26   ar
    23    26    27   ar
    24    27    28   ar
    25    28    29   ar
    26    29    31    1
    27    31    32    2
    28    31    33   am
    29    33    35    1
    30    35    36    1
    31    36    37    1
    32    29    30   ar
    33     7     8   ar
    34     8     9   ar
    35     9    10   ar
    36    17    12    1
    37    10     1   ar
    38    23    18    1
    39     9     4   ar
    40    30    25   ar
    41    33    34    1
    42    37    38    1
@<TRIPOS>MOLECULE
*****
 38 42 0 0 0
SMALL
GASTEIGER

@<TRIPOS>ATOM
      1 C         146.5466  141.6057  155.5979 C.ar    1  UNL1        0.2227
      2 N         145.8671  142.3824  156.6865 N.ar    1  UNL1       -0.1986
      3 C         144.7175  141.7758  157.4351 C.ar    1  UNL1        0.1376
      4 C         144.2474  140.3925  157.0952 C.ar    1  UNL1        0.0676
      5 C         143.0978  139.7859  157.8438 C.ar    1  UNL1        0.0074
      6 C         142.6277  138.4027  157.5038 C.ar    1  UNL1        0.0193
      7 C         143.3073  137.6260  156.4153 C.ar    1  UNL1        0.0830
      8 N         144.4569  138.2325  155.6666 N.ar    1  UNL1       -0.2264
      9 C         144.9269  139.6158  156.0066 C.ar    1  UNL1        0.1678
     10 N         146.0766  140.2224  155.2580 N.ar    1  UNL1       -0.1944
     11 C         146.0655  143.8662  153.6852 C.3     1  UNL1        0.0242
     12 C         147.4557  143.3425  153.8930 C.3     1  UNL1        0.1052
     13 C         148.6053  143.9491  153.1444 C.3     1  UNL1        0.1619
     14 O         149.9955  143.4254  153.3522 O.3     1  UNL1       -0.3502
     15 C         150.2361  142.2952  154.3085 C.3     1  UNL1        0.1637
     16 C         149.0865  141.6886  155.0571 C.3     1  UNL1        0.1256
     17 N         147.6963  142.2123  154.8493 N.pl3   1  UNL1       -0.2747
     18 N         144.0379  142.5525  158.5236 N.pl3   1  UNL1       -0.2897
     19 C         144.4865  142.3989  159.9467 C.3     1  UNL1        0.1242
     20 C         143.8069  143.1756  161.0353 C.3     1  UNL1        0.1636
     21 O         142.6788  144.1059  160.7008 O.3     1  UNL1       -0.3502
     22 C         142.2302  144.2595  159.2776 C.3     1  UNL1        0.1618
     23 C         142.9098  143.4828  158.1891 C.3     1  UNL1        0.1038
     24 C         142.4612  143.6364  156.7660 C.3     1  UNL1        0.0241
     25 C         142.8371  136.2426  156.0753 C.ar    1  UNL1        0.0179
     26 C         141.5530  136.0503  155.3243 C.ar    1  UNL1        0.0015
     27 C         141.0829  134.6670  154.9844 C.ar    1  UNL1        0.0002
     28 C         141.8970  133.4760  155.3955 C.ar    1  UNL1        0.0045
     29 C         143.1811  133.6684  156.1465 C.ar    1  UNL1        0.0534
     30 C         143.6512  135.0517  156.4864 C.ar    1  UNL1        0.0060
     31 C         143.9952  132.4775  156.5577 C.2     1  UNL1        0.2459
     32 O         144.9041  132.5650  157.7477 O.2     1  UNL1       -0.2701
     33 N         143.9003  131.1991  155.7787 N.am    1  UNL1       -0.2985
     34 H         143.3037  131.1417  154.9976 H       1  UNL1        0.1498
     35 C         144.7143  130.0082  156.1898 C.3     1  UNL1        0.1215
     36 C         144.2741  129.1623  157.3476 C.3     1  UNL1        0.1583
     37 O         143.6681  129.8062  158.5593 O.3     1  UNL1       -0.3802
     38 H         144.3353  130.3533  159.0025 H       1  UNL1        0.2105
@<TRIPOS>BOND
     1    12    11    1
     2    12    13    1
     3    13    14    1
     4    14    15    1
     5    15    16    1
     6    16    17    1
     7    17     1    1
     8     1     2   ar
     9     2     3   ar
    10     3    18    1
    11    18    19    1
    12    19    20    1
    13    20    21    1
    14    21    22    1
    15    22    23    1
    16    23    24    1
    17     3     4   ar
    18     4     5   ar
    19     5     6   ar
    20     6     7   ar
    21     7    25    1
    22    25    26   ar
    23    26    27   ar
    24    27    28   ar
    25    28    29   ar
    26    29    31    1
    27    31    32    2
    28    31    33   am
    29    33    35    1
    30    35    36    1
    31    36    37    1
    32    29    30   ar
    33     7     8   ar
    34     8     9   ar
    35     9    10   ar
    36    17    12    1
    37    10     1   ar
    38    23    18    1
    39     9     4   ar
    40    30    25   ar
    41    33    34    1
    42    37    38    1
@<TRIPOS>MOLECULE
*****
 38 42 0 0 0
SMALL
GASTEIGER

@<TRIPOS>ATOM
      1 C         140.3333  142.4786  157.4929 C.ar    1  UNL1        0.2227
      2 N         141.2040  141.4822  156.7865 N.ar    1  UNL1       -0.1986
      3 C         142.3209  140.8059  157.5246 C.ar    1  UNL1        0.1376
      4 C         142.5672  141.1259  158.9693 C.ar    1  UNL1        0.0676
      5 C         143.6842  140.4495  159.7074 C.ar    1  UNL1        0.0074
      6 C         143.9304  140.7695  161.1520 C.ar    1  UNL1        0.0193
      7 C         143.0597  141.7658  161.8585 C.ar    1  UNL1        0.0830
      8 N         141.9428  142.4422  161.1203 N.ar    1  UNL1       -0.2264
      9 C         141.6965  142.1222  159.6757 C.ar    1  UNL1        0.1678
     10 N         140.5795  142.7986  158.9375 N.ar    1  UNL1       -0.1944
     11 C         140.7903  145.1451  156.1963 C.3     1  UNL1        0.0242
     12 C         139.4448  144.4882  156.1064 C.3     1  UNL1        0.1052
     13 C         138.3278  145.1645  155.3683 C.3     1  UNL1        0.1619
     14 O         136.9823  144.5076  155.2784 O.3     1  UNL1       -0.3502
     15 C         136.7537  143.1745  155.9267 C.3     1  UNL1        0.1637
     16 C         137.8707  142.4981  156.6649 C.3     1  UNL1        0.1256
     17 N         139.2162  143.1550  156.7547 N.pl3   1  UNL1       -0.2747
     18 N         143.1916  139.8095  156.8181 N.pl3   1  UNL1       -0.2897
     19 C         144.4362  140.2657  156.1162 C.3     1  UNL1        0.1242
     20 C         145.3069  139.2694  155.4097 C.3     1  UNL1        0.1636
     21 O         144.9330  137.8167  155.4052 O.3     1  UNL1       -0.3502
     22 C         143.6884  137.3604  156.1071 C.3     1  UNL1        0.1618
     23 C         142.8177  138.3568  156.8136 C.3     1  UNL1        0.1038
     24 C         141.5731  137.9006  157.5155 C.3     1  UNL1        0.0241
     25 C         143.3060  142.0858  163.3032 C.ar    1  UNL1        0.0179
     26 C         144.0788  143.3156  163.6778 C.ar    1  UNL1        0.0015
     27 C         144.3251  143.6356  165.1224 C.ar    1  UNL1        0.0002
     28 C         143.7986  142.7257  166.1924 C.ar    1  UNL1        0.0045
     29 C         143.0258  141.4959  165.8178 C.ar    1  UNL1        0.0534
     30 C         142.7795  141.1759  164.3732 C.ar    1  UNL1        0.0060
     31 C         142.4993  140.5860  166.8878 C.2     1  UNL1        0.2459
     32 O         142.2484  139.1385  166.5849 O.2     1  UNL1       -0.2701
     33 N         142.2237  141.1236  168.2608 N.am    1  UNL1       -0.2985
     34 H         142.3884  142.0737  168.4596 H       1  UNL1        0.1498
     35 C         141.6972  140.2138  169.3308 C.3     1  UNL1        0.1215
     36 C         141.3364  140.7689  170.6767 C.3     1  UNL1        0.1583
     37 O         142.2747  140.5982  171.8345 O.3     1  UNL1       -0.3802
     38 H         142.3423  139.6571  172.0599 H       1  UNL1        0.2105
@<TRIPOS>BOND
     1    12    11    1
     2    12    13    1
     3    13    14    1
     4    14    15    1
     5    15    16    1
     6    16    17    1
     7    17     1    1
     8     1     2   ar
     9     2     3   ar
    10     3    18    1
    11    18    19    1
    12    19    20    1
    13    20    21    1
    14    21    22    1
    15    22    23    1
    16    23    24    1
    17     3     4   ar
    18     4     5   ar
    19     5     6   ar
    20     6     7   ar
    21     7    25    1
    22    25    26   ar
    23    26    27   ar
    24    27    28   ar
    25    28    29   ar
    26    29    31    1
    27    31    32    2
    28    31    33   am
    29    33    35    1
    30    35    36    1
    31    36    37    1
    32    29    30   ar
    33     7     8   ar
    34     8     9   ar
    35     9    10   ar
    36    17    12    1
    37    10     1   ar
    38    23    18    1
    39     9     4   ar
    40    30    25   ar
    41    33    34    1
    42    37    38    1
@<TRIPOS>MOLECULE
*****
 38 42 0 0 0
SMALL
GASTEIGER

@<TRIPOS>ATOM
      1 C         139.5707  146.2791  156.5526 C.ar    1  UNL1        0.2227
      2 N         138.9060  145.0444  156.0200 N.ar    1  UNL1       -0.1986
      3 C         139.0547  143.7401  156.7457 C.ar    1  UNL1        0.1376
      4 C         139.8681  143.6705  158.0041 C.ar    1  UNL1        0.0676
      5 C         140.0168  142.3662  158.7298 C.ar    1  UNL1        0.0074
      6 C         140.8303  142.2966  159.9882 C.ar    1  UNL1        0.0193
      7 C         141.4950  143.5313  160.5208 C.ar    1  UNL1        0.0830
      8 N         141.3463  144.8356  159.7951 N.ar    1  UNL1       -0.2264
      9 C         140.5329  144.9052  158.5368 C.ar    1  UNL1        0.1678
     10 N         140.3841  146.2095  157.8110 N.ar    1  UNL1       -0.1944
     11 C         140.8175  146.6416  153.8482 C.3     1  UNL1        0.0242
     12 C         140.0454  147.7646  154.4747 C.3     1  UNL1        0.1052
     13 C         139.8966  149.0689  153.7490 C.3     1  UNL1        0.1619
     14 O         139.1245  150.1920  154.3755 O.3     1  UNL1       -0.3502
     15 C         138.5011  150.0108  155.7277 C.3     1  UNL1        0.1637
     16 C         138.6498  148.7065  156.4534 C.3     1  UNL1        0.1256
     17 N         139.4220  147.5834  155.8269 N.pl3   1  UNL1       -0.2747
     18 N         138.3900  142.5054  156.2131 N.pl3   1  UNL1       -0.2897
     19 C         137.0129  142.1350  156.6783 C.3     1  UNL1        0.1242
     20 C         136.3482  140.9003  156.1457 C.3     1  UNL1        0.1636
     21 O         137.0605  140.0361  155.1478 O.3     1  UNL1       -0.3502
     22 C         138.4376  140.4065  154.6826 C.3     1  UNL1        0.1618
     23 C         139.1024  141.6412  155.2152 C.3     1  UNL1        0.1038
     24 C         140.4794  142.0117  154.7500 C.3     1  UNL1        0.0241
     25 C         142.3085  143.4617  161.7792 C.ar    1  UNL1        0.0179
     26 C         142.7309  144.7243  162.4700 C.ar    1  UNL1        0.0015
     27 C         143.5443  144.6546  163.7284 C.ar    1  UNL1        0.0002
     28 C         143.9353  143.3223  164.2960 C.ar    1  UNL1        0.0045
     29 C         143.5128  142.0597  163.6051 C.ar    1  UNL1        0.0534
     30 C         142.6994  142.1293  162.3467 C.ar    1  UNL1        0.0060
     31 C         143.9038  140.7273  164.1726 C.2     1  UNL1        0.2459
     32 O         145.3525  140.3527  164.2773 O.2     1  UNL1       -0.2701
     33 N         142.8461  139.7697  164.6354 N.am    1  UNL1       -0.2985
     34 H         141.8953  140.0156  164.5667 H       1  UNL1        0.1498
     35 C         143.2371  138.4374  165.2029 C.3     1  UNL1        0.1215
     36 C         143.6405  138.3249  166.6432 C.3     1  UNL1        0.1583
     37 O         144.5344  137.2048  167.0864 O.3     1  UNL1       -0.3802
     38 H         144.0700  136.3597  166.9815 H       1  UNL1        0.2105
@<TRIPOS>BOND
     1    12    11    1
     2    12    13    1
     3    13    14    1
     4    14    15    1
     5    15    16    1
     6    16    17    1
     7    17     1    1
     8     1     2   ar
     9     2     3   ar
    10     3    18    1
    11    18    19    1
    12    19    20    1
    13    20    21    1
    14    21    22    1
    15    22    23    1
    16    23    24    1
    17     3     4   ar
    18     4     5   ar
    19     5     6   ar
    20     6     7   ar
    21     7    25    1
    22    25    26   ar
    23    26    27   ar
    24    27    28   ar
    25    28    29   ar
    26    29    31    1
    27    31    32    2
    28    31    33   am
    29    33    35    1
    30    35    36    1
    31    36    37    1
    32    29    30   ar
    33     7     8   ar
    34     8     9   ar
    35     9    10   ar
    36    17    12    1
    37    10     1   ar
    38    23    18    1
    39     9     4   ar
    40    30    25   ar
    41    33    34    1
    42    37    38    1
@<TRIPOS>MOLECULE
*****
 38 42 0 0 0
SMALL
GASTEIGER

@<TRIPOS>ATOM
      1 C         139.0737  139.7616  161.6655 C.ar    1  UNL1        0.2227
      2 N         140.4460  140.1630  161.2119 N.ar    1  UNL1       -0.1986
      3 C         140.6585  140.6567  159.8115 C.ar    1  UNL1        0.1376
      4 C         139.4987  140.7489  158.8646 C.ar    1  UNL1        0.0676
      5 C         139.7113  141.2426  157.4642 C.ar    1  UNL1        0.0074
      6 C         138.5515  141.3348  156.5175 C.ar    1  UNL1        0.0193
      7 C         137.1792  140.9334  156.9711 C.ar    1  UNL1        0.0830
      8 N         136.9667  140.4398  158.3714 N.ar    1  UNL1       -0.2264
      9 C         138.1265  140.3475  159.3182 C.ar    1  UNL1        0.1678
     10 N         137.9140  139.8539  160.7187 N.ar    1  UNL1       -0.1944
     11 C         138.0753  141.6384  163.7823 C.3     1  UNL1        0.0242
     12 C         138.3620  140.2064  164.1243 C.3     1  UNL1        0.1052
     13 C         138.1496  139.7127  165.5247 C.3     1  UNL1        0.1619
     14 O         138.4363  138.2806  165.8667 O.3     1  UNL1       -0.3502
     15 C         138.9355  137.3422  164.8083 C.3     1  UNL1        0.1637
     16 C         139.1479  137.8359  163.4079 C.3     1  UNL1        0.1256
     17 N         138.8612  139.2680  163.0659 N.pl3   1  UNL1       -0.2747
     18 N         142.0308  141.0581  159.3579 N.pl3   1  UNL1       -0.2897
     19 C         142.5252  142.4521  159.6072 C.3     1  UNL1        0.1242
     20 C         143.8975  142.8535  159.1536 C.3     1  UNL1        0.1636
     21 O         144.7753  141.8609  158.4507 O.3     1  UNL1       -0.3502
     22 C         144.2809  140.4668  158.2014 C.3     1  UNL1        0.1618
     23 C         142.9086  140.0654  158.6550 C.3     1  UNL1        0.1038
     24 C         142.4142  138.6714  158.4057 C.3     1  UNL1        0.0241
     25 C         136.0195  141.0257  156.0242 C.ar    1  UNL1        0.0179
     26 C         136.2186  141.5848  154.6467 C.ar    1  UNL1        0.0015
     27 C         135.0588  141.6771  153.6998 C.ar    1  UNL1        0.0002
     28 C         133.6999  141.2102  154.1305 C.ar    1  UNL1        0.0045
     29 C         133.5009  140.6510  155.5082 C.ar    1  UNL1        0.0534
     30 C         134.6606  140.5588  156.4549 C.ar    1  UNL1        0.0060
     31 C         132.1421  140.1841  155.9389 C.2     1  UNL1        0.2459
     32 O         130.9781  141.1296  155.9038 O.2     1  UNL1       -0.2701
     33 N         131.9472  138.7716  156.4048 N.am    1  UNL1       -0.2985
     34 H         132.7111  138.1510  156.4278 H       1  UNL1        0.1498
     35 C         130.5883  138.3047  156.8356 C.3     1  UNL1        0.1215
     36 C         130.1904  138.3855  158.2795 C.3     1  UNL1        0.1583
     37 O         128.7406  138.4730  158.6542 O.3     1  UNL1       -0.3802
     38 H         128.3751  139.3140  158.3378 H       1  UNL1        0.2105
@<TRIPOS>BOND
     1    12    11    1
     2    12    13    1
     3    13    14    1
     4    14    15    1
     5    15    16    1
     6    16    17    1
     7    17     1    1
     8     1     2   ar
     9     2     3   ar
    10     3    18    1
    11    18    19    1
    12    19    20    1
    13    20    21    1
    14    21    22    1
    15    22    23    1
    16    23    24    1
    17     3     4   ar
    18     4     5   ar
    19     5     6   ar
    20     6     7   ar
    21     7    25    1
    22    25    26   ar
    23    26    27   ar
    24    27    28   ar
    25    28    29   ar
    26    29    31    1
    27    31    32    2
    28    31    33   am
    29    33    35    1
    30    35    36    1
    31    36    37    1
    32    29    30   ar
    33     7     8   ar
    34     8     9   ar
    35     9    10   ar
    36    17    12    1
    37    10     1   ar
    38    23    18    1
    39     9     4   ar
    40    30    25   ar
    41    33    34    1
    42    37    38    1
