@<TRIPOS>MOLECULE
*****
 39 42 0 0 0
SMALL
GASTEIGER

@<TRIPOS>ATOM
      1 N         139.2215  143.5669  158.6461 N.am    1  UNL1       -0.2531
      2 C         139.1499  142.8276  159.9493 C.2     1  UNL1        0.3135
      3 O         138.6807  141.4032  159.9788 O.2     1  UNL1       -0.2518
      4 N         139.5476  143.5128  161.2231 N.am    1  UNL1       -0.2282
      5 C         140.0168  144.9372  161.1936 C.3     1  UNL1        0.1015
      6 C         140.4145  145.6223  162.4674 C.3     1  UNL1        0.0268
      7 C         140.3429  144.8830  163.7706 C.3     1  UNL1        0.0310
      8 C         139.8737  143.4587  163.8001 C.ar    1  UNL1        0.0096
      9 C         139.8021  142.7194  165.1033 C.ar    1  UNL1       -0.0028
     10 C         139.3329  141.2950  165.1328 C.ar    1  UNL1        0.0146
     11 CA        138.9352  140.6098  163.8590 C.ar    1  UNL1        0.1221
     12 N         139.0067  141.3491  162.5558 N.ar    1  UNL1       -0.2275
     13 C         139.4760  142.7735  162.5263 C.ar    1  UNL1        0.1345
     14 H         139.5294  144.5018  158.6268 H       1  UNL1        0.1578
     15 C         136.9753  141.9820  155.7838 C.ar    1  UNL1        0.1525
     16 C         137.3730  142.6671  157.0576 C.ar    1  UNL1        0.0721
     17 C         138.8238  142.8818  157.3724 C.ar    1  UNL1        0.1384
     18 N         139.8769  142.4113  156.4134 N.ar    1  UNL1       -0.2281
     19 C         139.4792  141.7261  155.1396 C.ar    1  UNL1        0.1136
     20 C         138.0284  141.5115  154.8249 C.ar    1  UNL1        0.1215
     21 C         137.6308  140.8264  153.5511 C.1     1  UNL1        0.1051
     22 N         137.2331  140.1412  152.2774 N.1     1  UNL1       -0.1907
     23 O         135.5245  141.7674  155.4690 O.3     1  UNL1       -0.4719
     24 C         134.8156  140.5527  155.9905 C.3     1  UNL1        0.2373
     25 C         133.3187  140.5416  156.0872 C.3     1  UNL1        0.1894
     26 C         133.0170  138.8243  158.0133 C.3     1  UNL1        0.1743
     27 O         132.6528  140.1274  157.3658 O.3     1  UNL1       -0.3471
     28 C         138.4659  139.1854  163.8885 C.2     1  UNL1        0.2529
     29 O         139.3921  138.0819  163.4707 O.2     1  UNL1       -0.2815
     30 C         139.2613  140.5558  166.4360 C.3     1  UNL1        0.1008
     31 N         140.5228  140.1344  167.1295 N.3     1  UNL1       -0.2666
     32 C         140.7342  140.4763  168.5746 C.3     1  UNL1        0.0882
     33 C         141.9958  140.0550  169.2682 C.3     1  UNL1        0.0702
     34 C         142.2072  140.3969  170.7133 C.3     1  UNL1        0.0186
     35 N         143.0459  139.2918  168.5167 N.3     1  UNL1       -0.2974
     36 C         142.8344  138.9499  167.0715 C.3     1  UNL1        0.0702
     37 C         143.8845  138.1867  166.3199 C.3     1  UNL1        0.0186
     38 C         141.5729  139.3712  166.3779 C.3     1  UNL1        0.0882
     39 H         143.1796  138.4099  169.0114 H       1  UNL1        0.1232
@<TRIPOS>BOND
     1    26    27    1
     2    27    25    1
     3    25    24    1
     4    24    23    1
     5    23    15    1
     6    15    16   ar
     7    16    17   ar
     8    17     1    1
     9     1     2   am
    10     2     3    2
    11     2     4   am
    12     4     5    1
    13     5     6    1
    14     6     7    1
    15     7     8    1
    16     8     9   ar
    17     9    10   ar
    18    10    30    1
    19    30    31    1
    20    31    32    1
    21    32    33    1
    22    33    34    1
    23    33    35    1
    24    35    36    1
    25    36    37    1
    26    36    38    1
    27    10    11   ar
    28    11    28    1
    29    28    29    2
    30    11    12   ar
    31    12    13   ar
    32    17    18   ar
    33    18    19   ar
    34    19    20   ar
    35    20    21    1
    36    21    22    3
    37    20    15   ar
    38    13     4    1
    39    13     8   ar
    40    38    31    1
    41     1    14    1
    42    35    39    1
@<TRIPOS>MOLECULE
*****
 39 42 0 0 0
SMALL
GASTEIGER

@<TRIPOS>ATOM
      1 N         140.6768  139.0521  163.2320 N.am    1  UNL1       -0.2531
      2 C         140.7790  140.2084  162.2820 C.2     1  UNL1        0.3135
      3 O         140.4417  141.5938  162.7477 O.2     1  UNL1       -0.2518
      4 N         141.2186  139.9794  160.8662 N.am    1  UNL1       -0.2282
      5 C         141.5559  138.5940  160.4004 C.3     1  UNL1        0.1015
      6 C         141.9954  138.3650  158.9847 C.3     1  UNL1        0.0268
      7 C         142.0977  139.5213  158.0348 C.3     1  UNL1        0.0310
      8 C         141.7603  140.9067  158.5005 C.ar    1  UNL1        0.0096
      9 C         141.8626  142.0630  157.5505 C.ar    1  UNL1       -0.0028
     10 C         141.5253  143.4483  158.0163 C.ar    1  UNL1        0.0146
     11 CA        141.0857  143.6774  159.4321 C.ar    1  UNL1        0.1221
     12 N         140.9835  142.5211  160.3820 N.ar    1  UNL1       -0.2275
     13 C         141.3208  141.1357  159.9162 C.ar    1  UNL1        0.1345
     14 H         140.8982  138.1428  162.9262 H       1  UNL1        0.1578
     15 C         140.7637  140.0646  167.0683 C.ar    1  UNL1        0.1525
     16 C         141.2032  139.8356  165.6525 C.ar    1  UNL1        0.0721
     17 C         140.2373  139.2811  164.6477 C.ar    1  UNL1        0.1384
     18 N         138.8318  138.9557  165.0586 N.ar    1  UNL1       -0.2281
     19 C         138.3923  139.1848  166.4744 C.ar    1  UNL1        0.1136
     20 C         139.3582  139.7392  167.4792 C.ar    1  UNL1        0.1215
     21 C         138.9187  139.9682  168.8949 C.1     1  UNL1        0.1051
     22 N         138.4792  140.1973  170.3107 N.1     1  UNL1       -0.1907
     23 O         141.7296  140.6190  168.0730 O.3     1  UNL1       -0.4719
     24 C         141.9196  142.1022  168.1916 C.3     1  UNL1        0.2373
     25 C         140.9546  142.9199  168.9981 C.3     1  UNL1        0.1894
     26 C         141.6753  141.8484  171.2525 C.3     1  UNL1        0.1743
     27 O         141.1078  143.0072  170.4877 O.3     1  UNL1       -0.3471
     28 C         140.7484  145.0628  159.8978 C.2     1  UNL1        0.2529
     29 O         139.6441  145.2720  160.8912 O.2     1  UNL1       -0.2815
     30 C         141.6275  144.6047  157.0663 C.3     1  UNL1        0.1008
     31 N         140.3934  145.1445  156.4064 N.3     1  UNL1       -0.2666
     32 C         139.2801  144.2151  156.0234 C.3     1  UNL1        0.0882
     33 C         138.0459  144.7550  155.3635 C.3     1  UNL1        0.0702
     34 C         136.9326  143.8256  154.9805 C.3     1  UNL1        0.0186
     35 N         137.9251  146.2242  155.0865 N.3     1  UNL1       -0.2974
     36 C         139.0385  147.1536  155.4695 C.3     1  UNL1        0.0702
     37 C         138.9178  148.6229  155.1926 C.3     1  UNL1        0.0186
     38 C         140.2726  146.6138  156.1294 C.3     1  UNL1        0.0882
     39 H         137.0901  146.5482  155.5746 H       1  UNL1        0.1232
@<TRIPOS>BOND
     1    26    27    1
     2    27    25    1
     3    25    24    1
     4    24    23    1
     5    23    15    1
     6    15    16   ar
     7    16    17   ar
     8    17     1    1
     9     1     2   am
    10     2     3    2
    11     2     4   am
    12     4     5    1
    13     5     6    1
    14     6     7    1
    15     7     8    1
    16     8     9   ar
    17     9    10   ar
    18    10    30    1
    19    30    31    1
    20    31    32    1
    21    32    33    1
    22    33    34    1
    23    33    35    1
    24    35    36    1
    25    36    37    1
    26    36    38    1
    27    10    11   ar
    28    11    28    1
    29    28    29    2
    30    11    12   ar
    31    12    13   ar
    32    17    18   ar
    33    18    19   ar
    34    19    20   ar
    35    20    21    1
    36    21    22    3
    37    20    15   ar
    38    13     4    1
    39    13     8   ar
    40    38    31    1
    41     1    14    1
    42    35    39    1
@<TRIPOS>MOLECULE
*****
 39 42 0 0 0
SMALL
GASTEIGER

@<TRIPOS>ATOM
      1 N         141.1073  138.5430  159.0442 N.am    1  UNL1       -0.2531
      2 C         141.6525  138.6865  160.4342 C.2     1  UNL1        0.3135
      3 O         143.0957  139.0391  160.6411 O.2     1  UNL1       -0.2518
      4 N         140.7544  138.4774  161.6173 N.am    1  UNL1       -0.2282
      5 C         139.3112  138.1248  161.4105 C.3     1  UNL1        0.1015
      6 C         138.4132  137.9157  162.5936 C.3     1  UNL1        0.0268
      7 C         138.9585  138.0591  163.9836 C.3     1  UNL1        0.0310
      8 C         140.4016  138.4117  164.1905 C.ar    1  UNL1        0.0096
      9 C         140.9468  138.5552  165.5805 C.ar    1  UNL1       -0.0028
     10 C         142.3900  138.9078  165.7874 C.ar    1  UNL1        0.0146
     11 CA        143.2881  139.1169  164.6042 C.ar    1  UNL1        0.1221
     12 N         142.7429  138.9734  163.2142 N.ar    1  UNL1       -0.2275
     13 C         141.2996  138.6208  163.0074 C.ar    1  UNL1        0.1345
     14 H         140.1600  138.3116  158.9084 H       1  UNL1        0.1578
     15 C         143.6079  137.7925  156.0553 C.ar    1  UNL1        0.1525
     16 C         142.7099  137.5834  157.2384 C.ar    1  UNL1        0.0721
     17 C         142.0053  138.7521  157.8610 C.ar    1  UNL1        0.1384
     18 N         142.1986  140.1299  157.3004 N.ar    1  UNL1       -0.2281
     19 C         143.0966  140.3390  156.1172 C.ar    1  UNL1        0.1136
     20 C         143.8013  139.1703  155.4947 C.ar    1  UNL1        0.1215
     21 C         144.6993  139.3794  154.3115 C.1     1  UNL1        0.1051
     22 N         145.5972  139.5885  153.1283 N.1     1  UNL1       -0.1907
     23 O         144.3125  136.6238  155.4327 O.3     1  UNL1       -0.4719
     24 C         143.6829  135.2628  155.4679 C.3     1  UNL1        0.2373
     25 C         143.7876  134.4197  156.7042 C.3     1  UNL1        0.1894
     26 C         142.7150  132.0703  156.4220 C.3     1  UNL1        0.1743
     27 O         142.7030  133.4384  157.0369 O.3     1  UNL1       -0.3471
     28 C         144.7313  139.4695  164.8111 C.2     1  UNL1        0.2529
     29 O         145.3635  140.5542  163.9903 O.2     1  UNL1       -0.2815
     30 C         142.9352  139.0512  167.1774 C.3     1  UNL1        0.1008
     31 N         142.2436  139.9424  168.1661 N.3     1  UNL1       -0.2666
     32 C         140.8097  139.6908  168.5275 C.3     1  UNL1        0.0882
     33 C         140.1180  140.5820  169.5162 C.3     1  UNL1        0.0702
     34 C         138.6841  140.3305  169.8776 C.3     1  UNL1        0.0186
     35 N         140.8603  141.7247  170.1434 N.3     1  UNL1       -0.2974
     36 C         142.2942  141.9762  169.7820 C.3     1  UNL1        0.0702
     37 C         143.0365  143.1188  170.4092 C.3     1  UNL1        0.0186
     38 C         142.9858  141.0850  168.7933 C.3     1  UNL1        0.0882
     39 H         140.8327  141.5755  171.1521 H       1  UNL1        0.1232
@<TRIPOS>BOND
     1    26    27    1
     2    27    25    1
     3    25    24    1
     4    24    23    1
     5    23    15    1
     6    15    16   ar
     7    16    17   ar
     8    17     1    1
     9     1     2   am
    10     2     3    2
    11     2     4   am
    12     4     5    1
    13     5     6    1
    14     6     7    1
    15     7     8    1
    16     8     9   ar
    17     9    10   ar
    18    10    30    1
    19    30    31    1
    20    31    32    1
    21    32    33    1
    22    33    34    1
    23    33    35    1
    24    35    36    1
    25    36    37    1
    26    36    38    1
    27    10    11   ar
    28    11    28    1
    29    28    29    2
    30    11    12   ar
    31    12    13   ar
    32    17    18   ar
    33    18    19   ar
    34    19    20   ar
    35    20    21    1
    36    21    22    3
    37    20    15   ar
    38    13     4    1
    39    13     8   ar
    40    38    31    1
    41     1    14    1
    42    35    39    1
@<TRIPOS>MOLECULE
*****
 39 42 0 0 0
SMALL
GASTEIGER

@<TRIPOS>ATOM
      1 N         143.1761  138.4905  157.3088 N.am    1  UNL1       -0.2531
      2 C         142.4694  138.9942  158.5323 C.2     1  UNL1        0.3135
      3 O         141.3261  138.2154  159.1120 O.2     1  UNL1       -0.2518
      4 N         142.9062  140.2768  159.1760 N.am    1  UNL1       -0.2282
      5 C         144.0496  141.0556  158.5963 C.3     1  UNL1        0.1015
      6 C         144.4862  142.3381  159.2401 C.3     1  UNL1        0.0268
      7 C         143.7795  142.8418  160.4635 C.3     1  UNL1        0.0310
      8 C         142.6362  142.0630  161.0432 C.ar    1  UNL1        0.0096
      9 C         141.9295  142.5667  162.2667 C.ar    1  UNL1       -0.0028
     10 C         140.7861  141.7879  162.8464 C.ar    1  UNL1        0.0146
     11 CA        140.3494  140.5054  162.2027 C.ar    1  UNL1        0.1221
     12 N         141.0560  140.0016  160.9792 N.ar    1  UNL1       -0.2275
     13 C         142.1995  140.7805  160.3995 C.ar    1  UNL1        0.1345
     14 H         143.9266  139.0017  156.9283 H       1  UNL1        0.1578
     15 C         142.6519  134.6114  156.6549 C.ar    1  UNL1        0.1525
     16 C         143.0886  135.8939  157.2986 C.ar    1  UNL1        0.0721
     17 C         142.7394  137.2080  156.6651 C.ar    1  UNL1        0.1384
     18 N         141.9536  137.2396  155.3878 N.ar    1  UNL1       -0.2281
     19 C         141.5169  135.9570  154.7440 C.ar    1  UNL1        0.1136
     20 C         141.8661  134.6429  155.3776 C.ar    1  UNL1        0.1215
     21 C         141.4294  133.3605  154.7338 C.1     1  UNL1        0.1051
     22 N         140.9927  132.0779  154.0900 N.1     1  UNL1       -0.1907
     23 O         143.0010  133.2974  157.2884 O.3     1  UNL1       -0.4719
     24 C         144.3106  133.1329  158.0012 C.3     1  UNL1        0.2373
     25 C         145.2694  132.0625  157.5708 C.3     1  UNL1        0.1894
     26 C         144.5633  130.6254  155.5249 C.3     1  UNL1        0.1743
     27 O         145.4045  131.7168  156.1175 O.3     1  UNL1       -0.3471
     28 C         139.2060  139.7266  162.7824 C.2     1  UNL1        0.2529
     29 O         139.4747  138.5207  163.6332 O.2     1  UNL1       -0.2815
     30 C         140.0794  142.2916  164.0699 C.3     1  UNL1        0.1008
     31 N         140.6052  141.9519  165.4330 N.3     1  UNL1       -0.2666
     32 C         140.2721  142.8270  166.6048 C.3     1  UNL1        0.0882
     33 C         140.7979  142.4873  167.9680 C.3     1  UNL1        0.0702
     34 C         140.4649  143.3624  169.1398 C.3     1  UNL1        0.0186
     35 N         141.6568  141.2725  168.1593 N.3     1  UNL1       -0.2974
     36 C         141.9899  140.3974  166.9873 C.3     1  UNL1        0.0702
     37 C         142.8488  139.1826  167.1786 C.3     1  UNL1        0.0186
     38 C         141.4641  140.7371  165.6242 C.3     1  UNL1        0.0882
     39 H         141.1833  140.6817  168.8427 H       1  UNL1        0.1232
@<TRIPOS>BOND
     1    26    27    1
     2    27    25    1
     3    25    24    1
     4    24    23    1
     5    23    15    1
     6    15    16   ar
     7    16    17   ar
     8    17     1    1
     9     1     2   am
    10     2     3    2
    11     2     4   am
    12     4     5    1
    13     5     6    1
    14     6     7    1
    15     7     8    1
    16     8     9   ar
    17     9    10   ar
    18    10    30    1
    19    30    31    1
    20    31    32    1
    21    32    33    1
    22    33    34    1
    23    33    35    1
    24    35    36    1
    25    36    37    1
    26    36    38    1
    27    10    11   ar
    28    11    28    1
    29    28    29    2
    30    11    12   ar
    31    12    13   ar
    32    17    18   ar
    33    18    19   ar
    34    19    20   ar
    35    20    21    1
    36    21    22    3
    37    20    15   ar
    38    13     4    1
    39    13     8   ar
    40    38    31    1
    41     1    14    1
    42    35    39    1
@<TRIPOS>MOLECULE
*****
 39 42 0 0 0
SMALL
GASTEIGER

@<TRIPOS>ATOM
      1 N         143.1686  139.2432  159.1853 N.am    1  UNL1       -0.2531
      2 C         142.4284  139.2577  160.4899 C.2     1  UNL1        0.3135
      3 O         141.0828  138.6035  160.5962 O.2     1  UNL1       -0.2518
      4 N         143.0339  139.9266  161.6883 N.am    1  UNL1       -0.2282
      5 C         144.3795  140.5808  161.5821 C.3     1  UNL1        0.1015
      6 C         144.9849  141.2496  162.7804 C.3     1  UNL1        0.0268
      7 C         144.2448  141.2642  164.0850 C.3     1  UNL1        0.0310
      8 C         142.8992  140.6100  164.1913 C.ar    1  UNL1        0.0096
      9 C         142.1591  140.6245  165.4959 C.ar    1  UNL1       -0.0028
     10 C         140.8135  139.9703  165.6021 C.ar    1  UNL1        0.0146
     11 CA        140.2080  139.3014  164.4037 C.ar    1  UNL1        0.1221
     12 N         140.9481  139.2869  163.0991 N.ar    1  UNL1       -0.2275
     13 C         142.2938  139.9412  162.9929 C.ar    1  UNL1        0.1345
     14 H         144.0517  139.6726  159.1156 H       1  UNL1        0.1578
     15 C         142.1405  136.4313  156.5803 C.ar    1  UNL1        0.1525
     16 C         142.7459  137.1001  157.7786 C.ar    1  UNL1        0.0721
     17 C         142.5631  138.5744  157.9870 C.ar    1  UNL1        0.1384
     18 N         141.7749  139.3797  156.9970 N.ar    1  UNL1       -0.2281
     19 C         141.1695  138.7108  155.7985 C.ar    1  UNL1        0.1136
     20 C         141.3523  137.2367  155.5902 C.ar    1  UNL1        0.1215
     21 C         140.7468  136.5679  154.3919 C.1     1  UNL1        0.1051
     22 N         140.1414  135.8990  153.1935 N.1     1  UNL1       -0.1907
     23 O         142.3232  134.9572  156.3719 O.3     1  UNL1       -0.4719
     24 C         143.6661  134.3285  156.5988 C.3     1  UNL1        0.2373
     25 C         143.9783  133.6811  157.9154 C.3     1  UNL1        0.1894
     26 C         144.6904  131.1948  157.6675 C.3     1  UNL1        0.1743
     27 O         145.0330  132.6175  157.9968 O.3     1  UNL1       -0.3471
     28 C         138.8624  138.6472  164.5100 C.2     1  UNL1        0.2529
     29 O         138.7281  137.3131  165.1825 O.2     1  UNL1       -0.2815
     30 C         140.0733  139.9848  166.9067 C.3     1  UNL1        0.1008
     31 N         140.6840  140.6433  168.1081 N.3     1  UNL1       -0.2666
     32 C         141.6872  139.9018  168.9409 C.3     1  UNL1        0.0882
     33 C         142.2979  140.5603  170.1424 C.3     1  UNL1        0.0702
     34 C         143.3012  139.8188  170.9753 C.3     1  UNL1        0.0186
     35 N         141.9053  141.9603  170.5111 N.3     1  UNL1       -0.2974
     36 C         140.9020  142.7018  169.6782 C.3     1  UNL1        0.0702
     37 C         140.5094  144.1018  170.0468 C.3     1  UNL1        0.0186
     38 C         140.2914  142.0433  168.4768 C.3     1  UNL1        0.0882
     39 H         142.7602  142.5167  170.5069 H       1  UNL1        0.1232
@<TRIPOS>BOND
     1    26    27    1
     2    27    25    1
     3    25    24    1
     4    24    23    1
     5    23    15    1
     6    15    16   ar
     7    16    17   ar
     8    17     1    1
     9     1     2   am
    10     2     3    2
    11     2     4   am
    12     4     5    1
    13     5     6    1
    14     6     7    1
    15     7     8    1
    16     8     9   ar
    17     9    10   ar
    18    10    30    1
    19    30    31    1
    20    31    32    1
    21    32    33    1
    22    33    34    1
    23    33    35    1
    24    35    36    1
    25    36    37    1
    26    36    38    1
    27    10    11   ar
    28    11    28    1
    29    28    29    2
    30    11    12   ar
    31    12    13   ar
    32    17    18   ar
    33    18    19   ar
    34    19    20   ar
    35    20    21    1
    36    21    22    3
    37    20    15   ar
    38    13     4    1
    39    13     8   ar
    40    38    31    1
    41     1    14    1
    42    35    39    1
@<TRIPOS>MOLECULE
*****
 39 42 0 0 0
SMALL
GASTEIGER

@<TRIPOS>ATOM
      1 N         143.5997  136.8025  154.5339 N.am    1  UNL1       -0.2531
      2 C         143.6147  137.7115  155.7270 C.2     1  UNL1        0.3135
      3 O         142.9246  137.2985  156.9932 O.2     1  UNL1       -0.2518
      4 N         144.3197  139.0335  155.6539 N.am    1  UNL1       -0.2282
      5 C         145.0098  139.4465  154.3877 C.3     1  UNL1        0.1015
      6 C         145.7148  140.7684  154.3147 C.3     1  UNL1        0.0268
      7 C         145.7297  141.6774  155.5078 C.3     1  UNL1        0.0310
      8 C         145.0397  141.2644  156.7740 C.ar    1  UNL1        0.0096
      9 C         145.0546  142.1734  157.9671 C.ar    1  UNL1       -0.0028
     10 C         144.3646  141.7605  159.2333 C.ar    1  UNL1        0.0146
     11 CA        143.6595  140.4385  159.3064 C.ar    1  UNL1        0.1221
     12 N         143.6446  139.5295  158.1133 N.ar    1  UNL1       -0.2275
     13 C         144.3347  139.9425  156.8470 C.ar    1  UNL1        0.1345
     14 H         144.0526  137.0736  153.7029 H       1  UNL1        0.1578
     15 C         142.3727  133.2763  155.8792 C.ar    1  UNL1        0.1525
     16 C         143.0777  134.5982  155.8062 C.ar    1  UNL1        0.0721
     17 C         142.8947  135.4806  154.6070 C.ar    1  UNL1        0.1384
     18 N         142.0067  135.0409  153.4809 N.ar    1  UNL1       -0.2281
     19 C         141.3017  133.7189  153.5540 C.ar    1  UNL1        0.1136
     20 C         141.4847  132.8366  154.7531 C.ar    1  UNL1        0.1215
     21 C         140.7797  131.5146  154.8262 C.1     1  UNL1        0.1051
     22 N         140.0747  130.1926  154.8992 N.1     1  UNL1       -0.1907
     23 O         142.5557  132.3940  157.0784 O.3     1  UNL1       -0.4719
     24 C         143.7698  131.5199  157.1881 C.3     1  UNL1        0.2373
     25 C         143.6170  130.0589  157.4920 C.3     1  UNL1        0.1894
     26 C         143.6610  128.5423  159.6011 C.3     1  UNL1        0.1743
     27 O         144.3686  129.4486  158.6378 O.3     1  UNL1       -0.3471
     28 C         142.9694  140.0255  160.5725 C.2     1  UNL1        0.2529
     29 O         143.7578  139.4077  161.6892 O.2     1  UNL1       -0.2815
     30 C         144.3795  142.6695  160.4264 C.3     1  UNL1        0.1008
     31 N         143.2179  143.5814  160.6891 N.3     1  UNL1       -0.2666
     32 C         142.8988  144.0042  162.0924 C.3     1  UNL1        0.0882
     33 C         141.7372  144.9162  162.3552 C.3     1  UNL1        0.0702
     34 C         141.4180  145.3390  163.7585 C.3     1  UNL1        0.0186
     35 N         140.8947  145.4053  161.2145 N.3     1  UNL1       -0.2974
     36 C         141.2138  144.9824  159.8112 C.3     1  UNL1        0.0702
     37 C         140.3714  145.4715  158.6705 C.3     1  UNL1        0.0186
     38 C         142.3754  144.0705  159.5485 C.3     1  UNL1        0.0882
     39 H         140.9381  146.4242  161.2321 H       1  UNL1        0.1232
@<TRIPOS>BOND
     1    26    27    1
     2    27    25    1
     3    25    24    1
     4    24    23    1
     5    23    15    1
     6    15    16   ar
     7    16    17   ar
     8    17     1    1
     9     1     2   am
    10     2     3    2
    11     2     4   am
    12     4     5    1
    13     5     6    1
    14     6     7    1
    15     7     8    1
    16     8     9   ar
    17     9    10   ar
    18    10    30    1
    19    30    31    1
    20    31    32    1
    21    32    33    1
    22    33    34    1
    23    33    35    1
    24    35    36    1
    25    36    37    1
    26    36    38    1
    27    10    11   ar
    28    11    28    1
    29    28    29    2
    30    11    12   ar
    31    12    13   ar
    32    17    18   ar
    33    18    19   ar
    34    19    20   ar
    35    20    21    1
    36    21    22    3
    37    20    15   ar
    38    13     4    1
    39    13     8   ar
    40    38    31    1
    41     1    14    1
    42    35    39    1
@<TRIPOS>MOLECULE
*****
 39 42 0 0 0
SMALL
GASTEIGER

@<TRIPOS>ATOM
      1 N         143.6345  137.4404  156.1463 N.am    1  UNL1       -0.2531
      2 C         142.7857  138.4778  156.8197 C.2     1  UNL1        0.3135
      3 O         141.3646  138.1637  157.1830 O.2     1  UNL1       -0.2518
      4 N         143.3579  139.8292  157.1299 N.am    1  UNL1       -0.2282
      5 C         144.7790  140.1433  156.7666 C.3     1  UNL1        0.1015
      6 C         145.3512  141.4947  157.0768 C.3     1  UNL1        0.0268
      7 C         144.5024  142.5320  157.7503 C.3     1  UNL1        0.0310
      8 C         143.0814  142.2179  158.1135 C.ar    1  UNL1        0.0096
      9 C         142.2326  143.2552  158.7870 C.ar    1  UNL1       -0.0028
     10 C         140.8115  142.9411  159.1503 C.ar    1  UNL1        0.0146
     11 CA        140.2393  141.5897  158.8401 C.ar    1  UNL1        0.1221
     12 N         141.0881  140.5524  158.1666 N.ar    1  UNL1       -0.2275
     13 C         142.5091  140.8665  157.8034 C.ar    1  UNL1        0.1345
     14 H         144.5671  137.6466  155.9079 H       1  UNL1        0.1578
     15 C         142.6818  133.6031  156.4882 C.ar    1  UNL1        0.1525
     16 C         143.2541  134.9545  156.7984 C.ar    1  UNL1        0.0721
     17 C         143.0622  136.0891  155.8361 C.ar    1  UNL1        0.1384
     18 N         142.2982  135.8722  154.5636 N.ar    1  UNL1       -0.2281
     19 C         141.7260  134.5207  154.2535 C.ar    1  UNL1        0.1136
     20 C         141.9178  133.3862  155.2158 C.ar    1  UNL1        0.1215
     21 C         141.3456  132.0348  154.9056 C.1     1  UNL1        0.1051
     22 N         140.7733  130.6833  154.5954 N.1     1  UNL1       -0.1907
     23 O         142.8737  132.4686  157.4505 O.3     1  UNL1       -0.4719
     24 C         144.1761  131.7251  157.4835 C.3     1  UNL1        0.2373
     25 C         145.0412  131.6733  156.2592 C.3     1  UNL1        0.1894
     26 C         144.0318  129.3685  155.6118 C.3     1  UNL1        0.1743
     27 O         145.0635  130.4381  155.4084 O.3     1  UNL1       -0.3471
     28 C         138.8182  141.2756  159.2034 C.2     1  UNL1        0.2529
     29 O         138.2232  139.9509  158.8274 O.2     1  UNL1       -0.2815
     30 C         139.9627  143.9784  159.8237 C.3     1  UNL1        0.1008
     31 N         140.1463  144.2647  161.2846 N.3     1  UNL1       -0.2666
     32 C         141.4952  144.6609  161.8075 C.3     1  UNL1        0.0882
     33 C         141.6789  144.9473  163.2684 C.3     1  UNL1        0.0702
     34 C         143.0278  145.3434  163.7913 C.3     1  UNL1        0.0186
     35 N         140.5136  144.8374  164.2065 N.3     1  UNL1       -0.2974
     36 C         139.1646  144.4412  163.6836 C.3     1  UNL1        0.0702
     37 C         137.9993  144.3313  164.6216 C.3     1  UNL1        0.0186
     38 C         138.9810  144.1548  162.2227 C.3     1  UNL1        0.0882
     39 H         140.4022  145.7510  164.6461 H       1  UNL1        0.1232
@<TRIPOS>BOND
     1    26    27    1
     2    27    25    1
     3    25    24    1
     4    24    23    1
     5    23    15    1
     6    15    16   ar
     7    16    17   ar
     8    17     1    1
     9     1     2   am
    10     2     3    2
    11     2     4   am
    12     4     5    1
    13     5     6    1
    14     6     7    1
    15     7     8    1
    16     8     9   ar
    17     9    10   ar
    18    10    30    1
    19    30    31    1
    20    31    32    1
    21    32    33    1
    22    33    34    1
    23    33    35    1
    24    35    36    1
    25    36    37    1
    26    36    38    1
    27    10    11   ar
    28    11    28    1
    29    28    29    2
    30    11    12   ar
    31    12    13   ar
    32    17    18   ar
    33    18    19   ar
    34    19    20   ar
    35    20    21    1
    36    21    22    3
    37    20    15   ar
    38    13     4    1
    39    13     8   ar
    40    38    31    1
    41     1    14    1
    42    35    39    1
@<TRIPOS>MOLECULE
*****
 39 42 0 0 0
SMALL
GASTEIGER

@<TRIPOS>ATOM
      1 N         143.5860  136.7346  154.4791 N.am    1  UNL1       -0.2531
      2 C         143.6031  137.6506  155.6668 C.2     1  UNL1        0.3135
      3 O         142.9224  137.2415  156.9393 O.2     1  UNL1       -0.2518
      4 N         144.3009  138.9757  155.5820 N.am    1  UNL1       -0.2282
      5 C         144.9816  139.3848  154.3095 C.3     1  UNL1        0.1015
      6 C         145.6794  140.7099  154.2247 C.3     1  UNL1        0.0268
      7 C         145.6965  141.6259  155.4124 C.3     1  UNL1        0.0310
      8 C         145.0158  141.2168  156.6849 C.ar    1  UNL1        0.0096
      9 C         145.0329  142.1328  157.8726 C.ar    1  UNL1       -0.0028
     10 C         144.3522  141.7237  159.1451 C.ar    1  UNL1        0.0146
     11 CA        143.6544  140.3986  159.2299 C.ar    1  UNL1        0.1221
     12 N         143.6373  139.4826  158.0422 N.ar    1  UNL1       -0.2275
     13 C         144.3180  139.8917  156.7697 C.ar    1  UNL1        0.1345
     14 H         144.0328  137.0031  153.6439 H       1  UNL1        0.1578
     15 C         142.3973  133.2030  155.8447 C.ar    1  UNL1        0.1525
     16 C         143.0951  134.5281  155.7599 C.ar    1  UNL1        0.0721
     17 C         142.8883  135.4095  154.5639 C.ar    1  UNL1        0.1384
     18 N         141.9836  134.9658  153.4527 N.ar    1  UNL1       -0.2281
     19 C         141.2858  133.6406  153.5375 C.ar    1  UNL1        0.1136
     20 C         141.4927  132.7593  154.7335 C.ar    1  UNL1        0.1215
     21 C         140.7949  131.4342  154.8183 C.1     1  UNL1        0.1051
     22 N         140.0972  130.1090  154.9031 N.1     1  UNL1       -0.1907
     23 O         142.6042  132.3217  157.0406 O.3     1  UNL1       -0.4719
     24 C         143.6731  131.2695  157.0210 C.3     1  UNL1        0.2373
     25 C         144.6438  131.2077  155.8791 C.3     1  UNL1        0.1894
     26 C         144.1173  130.2995  153.5026 C.3     1  UNL1        0.1743
     27 O         144.5875  130.0661  154.9077 O.3     1  UNL1       -0.3471
     28 C         142.9737  139.9895  160.5024 C.2     1  UNL1        0.2529
     29 O         141.6046  139.3780  160.4576 O.2     1  UNL1       -0.2815
     30 C         144.3693  142.6397  160.3328 C.3     1  UNL1        0.1008
     31 N         143.2043  143.5469  160.5971 N.3     1  UNL1       -0.2666
     32 C         142.3488  144.0198  159.4594 C.3     1  UNL1        0.0882
     33 C         141.1838  144.9270  159.7237 C.3     1  UNL1        0.0702
     34 C         140.3282  145.3998  158.5860 C.3     1  UNL1        0.0186
     35 N         140.8744  145.3614  161.1257 N.3     1  UNL1       -0.2974
     36 C         141.7300  144.8885  162.2634 C.3     1  UNL1        0.0702
     37 C         141.4207  145.3229  163.6654 C.3     1  UNL1        0.0186
     38 C         142.8950  143.9813  161.9991 C.3     1  UNL1        0.0882
     39 H         139.9225  145.0544  161.3258 H       1  UNL1        0.1232
@<TRIPOS>BOND
     1    26    27    1
     2    27    25    1
     3    25    24    1
     4    24    23    1
     5    23    15    1
     6    15    16   ar
     7    16    17   ar
     8    17     1    1
     9     1     2   am
    10     2     3    2
    11     2     4   am
    12     4     5    1
    13     5     6    1
    14     6     7    1
    15     7     8    1
    16     8     9   ar
    17     9    10   ar
    18    10    30    1
    19    30    31    1
    20    31    32    1
    21    32    33    1
    22    33    34    1
    23    33    35    1
    24    35    36    1
    25    36    37    1
    26    36    38    1
    27    10    11   ar
    28    11    28    1
    29    28    29    2
    30    11    12   ar
    31    12    13   ar
    32    17    18   ar
    33    18    19   ar
    34    19    20   ar
    35    20    21    1
    36    21    22    3
    37    20    15   ar
    38    13     4    1
    39    13     8   ar
    40    38    31    1
    41     1    14    1
    42    35    39    1
@<TRIPOS>MOLECULE
*****
 39 42 0 0 0
SMALL
GASTEIGER

@<TRIPOS>ATOM
      1 N         138.2433  142.8715  159.5136 N.am    1  UNL1       -0.2531
      2 C         138.9804  142.1236  160.5848 C.2     1  UNL1        0.3135
      3 O         139.7913  140.9123  160.2312 O.2     1  UNL1       -0.2518
      4 N         138.9065  142.5871  162.0095 N.am    1  UNL1       -0.2282
      5 C         138.0955  143.7984  162.3631 C.3     1  UNL1        0.1015
      6 C         138.0216  144.2617  163.7877 C.3     1  UNL1        0.0268
      7 C         138.7587  143.5138  164.8589 C.3     1  UNL1        0.0310
      8 C         139.5697  142.3025  164.5053 C.ar    1  UNL1        0.0096
      9 C         140.3068  141.5546  165.5765 C.ar    1  UNL1       -0.0028
     10 C         141.1178  140.3434  165.2229 C.ar    1  UNL1        0.0146
     11 CA        141.1917  139.8799  163.7981 C.ar    1  UNL1        0.1221
     12 N         140.4546  140.6278  162.7270 N.ar    1  UNL1       -0.2275
     13 C         139.6436  141.8392  163.0806 C.ar    1  UNL1        0.1345
     14 H         137.7110  143.6665  159.7457 H       1  UNL1        0.1578
     15 C         137.4662  140.8691  156.1765 C.ar    1  UNL1        0.1525
     16 C         137.3924  141.3324  157.6012 C.ar    1  UNL1        0.0721
     17 C         138.3171  142.4081  158.0890 C.ar    1  UNL1        0.1384
     18 N         139.3157  143.0204  157.1519 N.ar    1  UNL1       -0.2281
     19 C         139.3895  142.5569  155.7272 C.ar    1  UNL1        0.1136
     20 C         138.4648  141.4813  155.2395 C.ar    1  UNL1        0.1215
     21 C         138.5387  141.0179  153.8148 C.1     1  UNL1        0.1051
     22 N         138.6126  140.5544  152.3901 N.1     1  UNL1       -0.1907
     23 O         136.5415  139.7934  155.6889 O.3     1  UNL1       -0.4719
     24 C         135.1506  140.1427  155.2492 C.3     1  UNL1        0.2373
     25 C         134.0125  140.0566  156.2225 C.3     1  UNL1        0.1894
     26 C         133.2281  138.6482  158.2600 C.3     1  UNL1        0.1743
     27 O         133.6336  138.7332  156.8184 O.3     1  UNL1       -0.3471
     28 C         142.0026  138.6686  163.4446 C.2     1  UNL1        0.2529
     29 O         141.3706  137.3085  163.4727 O.2     1  UNL1       -0.2815
     30 C         141.8549  139.5954  166.2940 C.3     1  UNL1        0.1008
     31 N         141.8926  140.1331  167.6938 N.3     1  UNL1       -0.2666
     32 C         140.8289  139.7420  168.6764 C.3     1  UNL1        0.0882
     33 C         140.8666  140.2796  170.0762 C.3     1  UNL1        0.0702
     34 C         139.8029  139.8885  171.0588 C.3     1  UNL1        0.0186
     35 N         141.9680  141.2085  170.4934 N.3     1  UNL1       -0.2974
     36 C         143.0317  141.5997  169.5108 C.3     1  UNL1        0.0702
     37 C         144.1331  142.5286  169.9280 C.3     1  UNL1        0.0186
     38 C         142.9940  141.0620  168.1110 C.3     1  UNL1        0.0882
     39 H         142.4426  140.7674  171.2812 H       1  UNL1        0.1232
@<TRIPOS>BOND
     1    26    27    1
     2    27    25    1
     3    25    24    1
     4    24    23    1
     5    23    15    1
     6    15    16   ar
     7    16    17   ar
     8    17     1    1
     9     1     2   am
    10     2     3    2
    11     2     4   am
    12     4     5    1
    13     5     6    1
    14     6     7    1
    15     7     8    1
    16     8     9   ar
    17     9    10   ar
    18    10    30    1
    19    30    31    1
    20    31    32    1
    21    32    33    1
    22    33    34    1
    23    33    35    1
    24    35    36    1
    25    36    37    1
    26    36    38    1
    27    10    11   ar
    28    11    28    1
    29    28    29    2
    30    11    12   ar
    31    12    13   ar
    32    17    18   ar
    33    18    19   ar
    34    19    20   ar
    35    20    21    1
    36    21    22    3
    37    20    15   ar
    38    13     4    1
    39    13     8   ar
    40    38    31    1
    41     1    14    1
    42    35    39    1
