@<TRIPOS>MOLECULE
*****
 36 39 0 0 0
SMALL
GASTEIGER

@<TRIPOS>ATOM
      1 O         143.6133  144.6977  163.6806 O.3     1  UNL1       -0.4103
      2 C         143.0717  141.5554  166.0435 C.ar    1  UNL1        0.0188
      3 C         143.9549  140.5433  165.3760 C.ar    1  UNL1        0.0016
      4 C         144.7242  140.9159  164.1435 C.ar    1  UNL1        0.0032
      5 C         144.6104  142.3007  163.5784 C.ar    1  UNL1        0.0377
      6 C         143.7272  143.3129  164.2458 C.ar    1  UNL1        0.1501
      7 C         142.9579  142.9402  165.4783 C.ar    1  UNL1        0.0391
      8 C         143.7778  142.4707  169.0953 C.3     1  UNL1        0.1306
      9 N         142.6269  141.6035  168.6788 N.ar    1  UNL1       -0.3216
     10 C         141.5985  141.0048  169.5920 C.ar    1  UNL1        0.1138
     11 C         140.6383  140.2140  168.7536 C.ar    1  UNL1        0.0233
     12 C         141.0733  140.3241  167.3223 C.ar    1  UNL1        0.0188
     13 C         142.3023  141.1828  167.2761 C.ar    1  UNL1        0.0601
     14 C         141.5404  141.1681  171.0820 C.2     1  UNL1        0.2587
     15 N         142.5046  140.4226  171.9564 N.am    1  UNL1       -0.3241
     16 O         140.5182  142.0770  171.6975 O.2     1  UNL1       -0.2688
     17 H         143.1755  139.8260  171.5524 H       1  UNL1        0.1453
     18 H         142.4664  140.5298  172.9343 H       1  UNL1        0.1453
     19 C         142.5286  145.0190  162.6958 C.2     1  UNL1        0.4062
     20 O         142.6394  144.5452  161.2768 O.2     1  UNL1       -0.2260
     21 N         141.3329  145.8140  163.1298 N.am    1  UNL1       -0.2689
     22 H         141.2601  146.1249  164.0611 H       1  UNL1        0.1528
     23 C         140.2481  146.1353  162.1449 C.3     1  UNL1        0.1100
     24 C         138.9337  145.4160  162.2157 C.3     1  UNL1        0.0938
     25 N         138.8604  144.0456  162.8213 N.3     1  UNL1       -0.2683
     26 C         138.5147  143.8842  164.2720 C.3     1  UNL1        0.0939
     27 C         138.4413  142.5139  164.8776 C.3     1  UNL1        0.1081
     28 N         138.7136  141.3049  164.0325 N.pl3   1  UNL1       -0.3046
     29 C         139.0593  141.4662  162.5818 C.3     1  UNL1        0.1081
     30 C         139.1327  142.8366  161.9762 C.3     1  UNL1        0.0939
     31 C         138.6402  139.9346  164.6381 C.ar    1  UNL1        0.0479
     32 C         137.9628  139.7347  165.9614 C.ar    1  UNL1        0.0145
     33 C         137.8894  138.3643  166.5670 C.ar    1  UNL1        0.0013
     34 C         138.4935  137.1939  165.8493 C.ar    1  UNL1        0.0001
     35 C         139.1709  137.3937  164.5260 C.ar    1  UNL1        0.0013
     36 C         139.2443  138.7641  163.9203 C.ar    1  UNL1        0.0145
@<TRIPOS>BOND
     1     8     9    1
     2     9    10   ar
     3    10    14    1
     4    14    15   am
     5    14    16    2
     6    10    11   ar
     7    11    12   ar
     8    12    13   ar
     9    13     2    1
    10     2     3   ar
    11     3     4   ar
    12     4     5   ar
    13     5     6   ar
    14     6     1    1
    15     1    19    1
    16    19    20    2
    17    19    21   am
    18    21    23    1
    19    23    24    1
    20    24    25    1
    21    25    26    1
    22    26    27    1
    23    27    28    1
    24    28    31    1
    25    31    32   ar
    26    32    33   ar
    27    33    34   ar
    28    34    35   ar
    29    35    36   ar
    30    28    29    1
    31    29    30    1
    32     6     7   ar
    33    13     9   ar
    34     7     2   ar
    35    30    25    1
    36    36    31   ar
    37    15    17    1
    38    15    18    1
    39    21    22    1
@<TRIPOS>MOLECULE
*****
 36 39 0 0 0
SMALL
GASTEIGER

@<TRIPOS>ATOM
      1 O         141.8676  145.5432  163.5970 O.3     1  UNL1       -0.4103
      2 C         143.1040  142.1710  165.2850 C.ar    1  UNL1        0.0188
      3 C         144.4500  142.0095  164.6431 C.ar    1  UNL1        0.0016
      4 C         144.9352  143.0260  163.6525 C.ar    1  UNL1        0.0032
      5 C         144.0744  144.2039  163.3038 C.ar    1  UNL1        0.0377
      6 C         142.7284  144.3653  163.9457 C.ar    1  UNL1        0.1501
      7 C         142.2432  143.3489  164.9363 C.ar    1  UNL1        0.0391
      8 C         143.3731  142.3750  168.5309 C.3     1  UNL1        0.1306
      9 N         142.7424  141.2483  167.7676 N.ar    1  UNL1       -0.3216
     10 C         142.1246  140.0176  168.3623 C.ar    1  UNL1        0.1138
     11 C         141.6191  139.1630  167.2378 C.ar    1  UNL1        0.0233
     12 C         141.9244  139.8657  165.9483 C.ar    1  UNL1        0.0188
     13 C         142.6187  141.1545  166.2757 C.ar    1  UNL1        0.0601
     14 C         142.0292  139.6975  169.8246 C.2     1  UNL1        0.2587
     15 N         140.6852  139.5342  170.4705 N.am    1  UNL1       -0.3241
     16 O         143.2776  139.5406  170.6411 O.2     1  UNL1       -0.2688
     17 H         139.8658  139.6372  169.9346 H       1  UNL1        0.1453
     18 H         140.6226  139.3242  171.4303 H       1  UNL1        0.1453
     19 C         140.8756  145.4416  162.4765 C.2     1  UNL1        0.4062
     20 O         139.4073  145.5545  162.7622 O.2     1  UNL1       -0.2260
     21 N         141.3517  145.2272  161.0704 N.am    1  UNL1       -0.2689
     22 H         142.3153  145.1531  160.8829 H       1  UNL1        0.1528
     23 C         140.3596  145.1256  159.9499 C.3     1  UNL1        0.1100
     24 C         139.7347  143.8027  159.6190 C.3     1  UNL1        0.0938
     25 N         139.5044  142.7903  160.7016 N.3     1  UNL1       -0.2683
     26 C         138.1338  142.6150  161.2853 C.3     1  UNL1        0.0939
     27 C         137.9034  141.6027  162.3679 C.3     1  UNL1        0.1081
     28 N         139.0438  140.7656  162.8669 N.pl3   1  UNL1       -0.3046
     29 C         140.4144  140.9408  162.2833 C.3     1  UNL1        0.1081
     30 C         140.6447  141.9532  161.2006 C.3     1  UNL1        0.0939
     31 C         138.8134  139.7532  163.9494 C.ar    1  UNL1        0.0479
     32 C         138.1982  140.1740  165.2512 C.ar    1  UNL1        0.0145
     33 C         137.9679  139.1616  166.3338 C.ar    1  UNL1        0.0013
     34 C         138.3528  137.7285  166.1147 C.ar    1  UNL1        0.0001
     35 C         138.9680  137.3077  164.8130 C.ar    1  UNL1        0.0013
     36 C         139.1984  138.3201  163.7304 C.ar    1  UNL1        0.0145
@<TRIPOS>BOND
     1     8     9    1
     2     9    10   ar
     3    10    14    1
     4    14    15   am
     5    14    16    2
     6    10    11   ar
     7    11    12   ar
     8    12    13   ar
     9    13     2    1
    10     2     3   ar
    11     3     4   ar
    12     4     5   ar
    13     5     6   ar
    14     6     1    1
    15     1    19    1
    16    19    20    2
    17    19    21   am
    18    21    23    1
    19    23    24    1
    20    24    25    1
    21    25    26    1
    22    26    27    1
    23    27    28    1
    24    28    31    1
    25    31    32   ar
    26    32    33   ar
    27    33    34   ar
    28    34    35   ar
    29    35    36   ar
    30    28    29    1
    31    29    30    1
    32     6     7   ar
    33    13     9   ar
    34     7     2   ar
    35    30    25    1
    36    36    31   ar
    37    15    17    1
    38    15    18    1
    39    21    22    1
@<TRIPOS>MOLECULE
*****
 36 39 0 0 0
SMALL
GASTEIGER

@<TRIPOS>ATOM
      1 O         138.7633  137.7215  163.7882 O.3     1  UNL1       -0.4103
      2 C         141.0907  139.6268  166.3772 C.ar    1  UNL1        0.0188
      3 C         142.3951  138.9187  166.1603 C.ar    1  UNL1        0.0016
      4 C         142.4889  137.8116  165.1527 C.ar    1  UNL1        0.0032
      5 C         141.2783  137.4125  164.3620 C.ar    1  UNL1        0.0377
      6 C         139.9739  138.1206  164.5789 C.ar    1  UNL1        0.1501
      7 C         139.8801  139.2277  165.5865 C.ar    1  UNL1        0.0391
      8 C         142.0838  139.4838  169.4826 C.3     1  UNL1        0.1306
      9 N         141.4532  140.6683  168.8122 N.ar    1  UNL1       -0.3216
     10 C         141.1685  141.9950  169.4515 C.ar    1  UNL1        0.1138
     11 C         140.5360  142.8808  168.4193 C.ar    1  UNL1        0.0233
     12 C         140.4299  142.1014  167.1421 C.ar    1  UNL1        0.0188
     13 C         140.9968  140.7341  167.3849 C.ar    1  UNL1        0.0601
     14 C         141.4643  142.3702  170.8734 C.2     1  UNL1        0.2587
     15 N         142.7709  143.0194  171.2216 N.am    1  UNL1       -0.3241
     16 O         140.4535  142.0960  171.9472 O.2     1  UNL1       -0.2688
     17 H         143.4344  143.1993  170.5168 H       1  UNL1        0.1453
     18 H         142.9650  143.2656  172.1548 H       1  UNL1        0.1453
     19 C         138.6080  138.1840  162.3698 C.2     1  UNL1        0.4062
     20 O         139.5591  137.7013  161.3150 O.2     1  UNL1       -0.2260
     21 N         137.5016  139.1293  162.0061 N.am    1  UNL1       -0.2689
     22 H         136.8773  139.4462  162.6984 H       1  UNL1        0.1528
     23 C         137.3462  139.5919  160.5877 C.3     1  UNL1        0.1100
     24 C         138.1926  140.7162  160.0685 C.3     1  UNL1        0.0938
     25 N         139.2473  141.3267  160.9431 N.3     1  UNL1       -0.2683
     26 C         140.6815  140.9161  160.7865 C.3     1  UNL1        0.0939
     27 C         141.7362  141.5266  161.6610 C.3     1  UNL1        0.1081
     28 N         141.3567  142.5476  162.6923 N.pl3   1  UNL1       -0.3046
     29 C         139.9226  142.9582  162.8489 C.3     1  UNL1        0.1081
     30 C         138.8678  142.3477  161.9743 C.3     1  UNL1        0.0939
     31 C         142.4114  143.1581  163.5669 C.ar    1  UNL1        0.0479
     32 C         142.8225  144.5859  163.3608 C.ar    1  UNL1        0.0145
     33 C         143.8772  145.1964  164.2354 C.ar    1  UNL1        0.0013
     34 C         144.5208  144.3791  165.3161 C.ar    1  UNL1        0.0001
     35 C         144.1098  142.9514  165.5221 C.ar    1  UNL1        0.0013
     36 C         143.0550  142.3408  164.6475 C.ar    1  UNL1        0.0145
@<TRIPOS>BOND
     1     8     9    1
     2     9    10   ar
     3    10    14    1
     4    14    15   am
     5    14    16    2
     6    10    11   ar
     7    11    12   ar
     8    12    13   ar
     9    13     2    1
    10     2     3   ar
    11     3     4   ar
    12     4     5   ar
    13     5     6   ar
    14     6     1    1
    15     1    19    1
    16    19    20    2
    17    19    21   am
    18    21    23    1
    19    23    24    1
    20    24    25    1
    21    25    26    1
    22    26    27    1
    23    27    28    1
    24    28    31    1
    25    31    32   ar
    26    32    33   ar
    27    33    34   ar
    28    34    35   ar
    29    35    36   ar
    30    28    29    1
    31    29    30    1
    32     6     7   ar
    33    13     9   ar
    34     7     2   ar
    35    30    25    1
    36    36    31   ar
    37    15    17    1
    38    15    18    1
    39    21    22    1
@<TRIPOS>MOLECULE
*****
 36 39 0 0 0
SMALL
GASTEIGER

@<TRIPOS>ATOM
      1 O         144.0172  144.2228  163.5125 O.3     1  UNL1       -0.4103
      2 C         141.4021  142.7200  166.0918 C.ar    1  UNL1        0.0188
      3 C         140.1567  143.4551  165.6938 C.ar    1  UNL1        0.0016
      4 C         140.1982  144.4461  164.5686 C.ar    1  UNL1        0.0032
      5 C         141.4850  144.7021  163.8415 C.ar    1  UNL1        0.0377
      6 C         142.7304  143.9669  164.2396 C.ar    1  UNL1        0.1501
      7 C         142.6889  142.9759  165.3648 C.ar    1  UNL1        0.0391
      8 C         140.4834  143.3398  169.1613 C.3     1  UNL1        0.1306
      9 N         140.9385  142.0138  168.6279 N.ar    1  UNL1       -0.3216
     10 C         141.0512  140.7398  169.4117 C.ar    1  UNL1        0.1138
     11 C         141.5431  139.6675  168.4853 C.ar    1  UNL1        0.0233
     12 C         141.7344  140.2788  167.1289 C.ar    1  UNL1        0.0188
     13 C         141.3608  141.7288  167.2171 C.ar    1  UNL1        0.0601
     14 C         140.7286  140.5683  170.8666 C.2     1  UNL1        0.2587
     15 N         139.8130  139.4646  171.3067 N.am    1  UNL1       -0.3241
     16 O         141.3215  141.5004  171.8812 O.2     1  UNL1       -0.2688
     17 H         139.4239  138.8528  170.6407 H       1  UNL1        0.1453
     18 H         139.6013  139.3520  172.2616 H       1  UNL1        0.1453
     19 C         144.4764  143.2751  162.4444 C.2     1  UNL1        0.4062
     20 O         145.5062  142.2312  162.7601 O.2     1  UNL1       -0.2260
     21 N         143.9058  143.3714  161.0605 N.am    1  UNL1       -0.2689
     22 H         143.2299  144.0565  160.8532 H       1  UNL1        0.1528
     23 C         144.3650  142.4236  159.9923 C.3     1  UNL1        0.1100
     24 C         143.7619  141.0536  159.8953 C.3     1  UNL1        0.0938
     25 N         142.8044  140.5794  160.9481 N.3     1  UNL1       -0.2683
     26 C         143.2862  139.6858  162.0524 C.3     1  UNL1        0.0939
     27 C         142.3287  139.2116  163.1052 C.3     1  UNL1        0.1081
     28 N         140.8895  139.6310  163.0537 N.pl3   1  UNL1       -0.3046
     29 C         140.4077  140.5246  161.9495 C.3     1  UNL1        0.1081
     30 C         141.3652  140.9989  160.8967 C.3     1  UNL1        0.0939
     31 C         139.9320  139.1569  164.1065 C.ar    1  UNL1        0.0479
     32 C         139.8871  137.7048  164.4803 C.ar    1  UNL1        0.0145
     33 C         138.9296  137.2307  165.5331 C.ar    1  UNL1        0.0013
     34 C         138.0170  138.2085  166.2120 C.ar    1  UNL1        0.0001
     35 C         138.0618  139.6604  165.8383 C.ar    1  UNL1        0.0013
     36 C         139.0193  140.1347  164.7854 C.ar    1  UNL1        0.0145
@<TRIPOS>BOND
     1     8     9    1
     2     9    10   ar
     3    10    14    1
     4    14    15   am
     5    14    16    2
     6    10    11   ar
     7    11    12   ar
     8    12    13   ar
     9    13     2    1
    10     2     3   ar
    11     3     4   ar
    12     4     5   ar
    13     5     6   ar
    14     6     1    1
    15     1    19    1
    16    19    20    2
    17    19    21   am
    18    21    23    1
    19    23    24    1
    20    24    25    1
    21    25    26    1
    22    26    27    1
    23    27    28    1
    24    28    31    1
    25    31    32   ar
    26    32    33   ar
    27    33    34   ar
    28    34    35   ar
    29    35    36   ar
    30    28    29    1
    31    29    30    1
    32     6     7   ar
    33    13     9   ar
    34     7     2   ar
    35    30    25    1
    36    36    31   ar
    37    15    17    1
    38    15    18    1
    39    21    22    1
@<TRIPOS>MOLECULE
*****
 36 39 0 0 0
SMALL
GASTEIGER

@<TRIPOS>ATOM
      1 O         144.6274  138.9687  163.4398 O.3     1  UNL1       -0.4103
      2 C         142.6500  140.8905  166.2941 C.ar    1  UNL1        0.0188
      3 C         143.2230  142.2699  166.1565 C.ar    1  UNL1        0.0016
      4 C         144.2640  142.5489  165.1133 C.ar    1  UNL1        0.0032
      5 C         144.7322  141.4485  164.2077 C.ar    1  UNL1        0.0377
      6 C         144.1592  140.0691  164.3454 C.ar    1  UNL1        0.1501
      7 C         143.1182  139.7901  165.3886 C.ar    1  UNL1        0.0391
      8 C         143.0814  141.0481  169.5251 C.3     1  UNL1        0.1306
      9 N         141.8072  140.6839  168.8224 N.ar    1  UNL1       -0.3216
     10 C         140.5076  140.3281  169.4815 C.ar    1  UNL1        0.1138
     11 C         139.5060  140.0358  168.4038 C.ar    1  UNL1        0.0233
     12 C         140.1867  140.2109  167.0786 C.ar    1  UNL1        0.0188
     13 C         141.6089  140.6114  167.3374 C.ar    1  UNL1        0.0601
     14 C         140.2540  140.2742  170.9590 C.2     1  UNL1        0.2587
     15 N         139.6262  139.0557  171.5682 N.am    1  UNL1       -0.3241
     16 O         140.6283  141.4387  171.8272 O.2     1  UNL1       -0.2688
     17 H         139.3806  138.2914  170.9984 H       1  UNL1        0.1453
     18 H         139.4598  139.0203  172.5379 H       1  UNL1        0.1453
     19 C         144.1211  138.8911  162.0300 C.2     1  UNL1        0.4062
     20 O         144.3712  140.0246  161.0798 O.2     1  UNL1       -0.2260
     21 N         143.3646  137.6801  161.5704 N.am    1  UNL1       -0.2689
     22 H         143.2005  136.9362  162.1940 H       1  UNL1        0.1528
     23 C         142.8583  137.6026  160.1605 C.3     1  UNL1        0.1100
     24 C         141.5777  138.2874  159.7848 C.3     1  UNL1        0.0938
     25 N         141.0066  139.3508  160.6752 N.3     1  UNL1       -0.2683
     26 C         141.1961  140.7986  160.3312 C.3     1  UNL1        0.0939
     27 C         140.6250  141.8620  161.2216 C.3     1  UNL1        0.1081
     28 N         139.8645  141.4778  162.4561 N.pl3   1  UNL1       -0.3046
     29 C         139.6750  140.0302  162.8001 C.3     1  UNL1        0.1081
     30 C         140.2461  138.9666  161.9097 C.3     1  UNL1        0.0939
     31 C         139.2934  142.5412  163.3465 C.ar    1  UNL1        0.0479
     32 C         140.0264  142.9525  164.5890 C.ar    1  UNL1        0.0145
     33 C         139.4554  144.0159  165.4794 C.ar    1  UNL1        0.0013
     34 C         138.1512  144.6682  165.1275 C.ar    1  UNL1        0.0001
     35 C         137.4182  144.2570  163.8851 C.ar    1  UNL1        0.0013
     36 C         137.9893  143.1935  162.9946 C.ar    1  UNL1        0.0145
@<TRIPOS>BOND
     1     8     9    1
     2     9    10   ar
     3    10    14    1
     4    14    15   am
     5    14    16    2
     6    10    11   ar
     7    11    12   ar
     8    12    13   ar
     9    13     2    1
    10     2     3   ar
    11     3     4   ar
    12     4     5   ar
    13     5     6   ar
    14     6     1    1
    15     1    19    1
    16    19    20    2
    17    19    21   am
    18    21    23    1
    19    23    24    1
    20    24    25    1
    21    25    26    1
    22    26    27    1
    23    27    28    1
    24    28    31    1
    25    31    32   ar
    26    32    33   ar
    27    33    34   ar
    28    34    35   ar
    29    35    36   ar
    30    28    29    1
    31    29    30    1
    32     6     7   ar
    33    13     9   ar
    34     7     2   ar
    35    30    25    1
    36    36    31   ar
    37    15    17    1
    38    15    18    1
    39    21    22    1
@<TRIPOS>MOLECULE
*****
 36 39 0 0 0
SMALL
GASTEIGER

@<TRIPOS>ATOM
      1 O         141.0935  145.9073  163.2742 O.3     1  UNL1       -0.4103
      2 C         141.6158  142.6804  165.5246 C.ar    1  UNL1        0.0188
      3 C         143.0872  142.4479  165.3497 C.ar    1  UNL1        0.0016
      4 C         143.8941  143.3685  164.4829 C.ar    1  UNL1        0.0032
      5 C         143.2296  144.5216  163.7911 C.ar    1  UNL1        0.0377
      6 C         141.7581  144.7542  163.9660 C.ar    1  UNL1        0.1501
      7 C         140.9512  143.8336  164.8328 C.ar    1  UNL1        0.0391
      8 C         141.6996  142.5506  168.7844 C.3     1  UNL1        0.1306
      9 N         140.8473  141.7002  167.8898 N.ar    1  UNL1       -0.3216
     10 C         139.8839  140.6407  168.3364 C.ar    1  UNL1        0.1138
     11 C         139.2499  140.0456  167.1141 C.ar    1  UNL1        0.0233
     12 C         139.8215  140.7372  165.9121 C.ar    1  UNL1        0.0188
     13 C         140.8088  141.7598  166.3915 C.ar    1  UNL1        0.0601
     14 C         139.6037  140.2457  169.7561 C.2     1  UNL1        0.2587
     15 N         140.6351  139.4923  170.5425 N.am    1  UNL1       -0.3241
     16 O         138.2920  140.6042  170.3894 O.2     1  UNL1       -0.2688
     17 H         141.4960  139.2570  170.1269 H       1  UNL1        0.1453
     18 H         140.4512  139.2331  171.4743 H       1  UNL1        0.1453
     19 C         140.3320  145.6807  162.0019 C.2     1  UNL1        0.4062
     20 O         138.8443  145.4929  162.0416 O.2     1  UNL1       -0.2260
     21 N         141.0581  145.6419  160.6900 N.am    1  UNL1       -0.2689
     22 H         142.0345  145.7651  160.6639 H       1  UNL1        0.1528
     23 C         140.2964  145.4153  159.4177 C.3     1  UNL1        0.1100
     24 C         139.9850  144.0184  158.9687 C.3     1  UNL1        0.0938
     25 N         140.1731  142.8678  159.9124 N.3     1  UNL1       -0.2683
     26 C         141.5313  142.2552  160.0869 C.3     1  UNL1        0.0939
     27 C         141.7194  141.1046  161.0306 C.3     1  UNL1        0.1081
     28 N         140.5495  140.5665  161.7999 N.pl3   1  UNL1       -0.3046
     29 C         139.1914  141.1789  161.6254 C.3     1  UNL1        0.1081
     30 C         139.0032  142.3296  160.6816 C.3     1  UNL1        0.0939
     31 C         140.7376  139.4159  162.7436 C.ar    1  UNL1        0.0479
     32 C         142.0446  139.2378  163.4580 C.ar    1  UNL1        0.0145
     33 C         142.2327  138.0872  164.4017 C.ar    1  UNL1        0.0013
     34 C         141.1140  137.1146  164.6311 C.ar    1  UNL1        0.0001
     35 C         139.8071  137.2926  163.9167 C.ar    1  UNL1        0.0013
     36 C         139.6189  138.4433  162.9729 C.ar    1  UNL1        0.0145
@<TRIPOS>BOND
     1     8     9    1
     2     9    10   ar
     3    10    14    1
     4    14    15   am
     5    14    16    2
     6    10    11   ar
     7    11    12   ar
     8    12    13   ar
     9    13     2    1
    10     2     3   ar
    11     3     4   ar
    12     4     5   ar
    13     5     6   ar
    14     6     1    1
    15     1    19    1
    16    19    20    2
    17    19    21   am
    18    21    23    1
    19    23    24    1
    20    24    25    1
    21    25    26    1
    22    26    27    1
    23    27    28    1
    24    28    31    1
    25    31    32   ar
    26    32    33   ar
    27    33    34   ar
    28    34    35   ar
    29    35    36   ar
    30    28    29    1
    31    29    30    1
    32     6     7   ar
    33    13     9   ar
    34     7     2   ar
    35    30    25    1
    36    36    31   ar
    37    15    17    1
    38    15    18    1
    39    21    22    1
@<TRIPOS>MOLECULE
*****
 36 39 0 0 0
SMALL
GASTEIGER

@<TRIPOS>ATOM
      1 O         144.9442  142.8469  163.0806 O.3     1  UNL1       -0.4103
      2 C         143.3705  141.5327  166.4785 C.ar    1  UNL1        0.0188
      3 C         143.3398  140.0548  166.2238 C.ar    1  UNL1        0.0016
      4 C         143.8439  139.5076  164.9214 C.ar    1  UNL1        0.0032
      5 C         144.3787  140.4383  163.8736 C.ar    1  UNL1        0.0377
      6 C         144.4094  141.9162  164.1283 C.ar    1  UNL1        0.1501
      7 C         143.9052  142.4633  165.4308 C.ar    1  UNL1        0.0391
      8 C         140.3068  142.4616  167.1117 C.3     1  UNL1        0.1306
      9 N         141.4581  142.5069  168.0720 N.ar    1  UNL1       -0.3216
     10 C         141.4034  142.9871  169.4920 C.ar    1  UNL1        0.1138
     11 C         142.7779  142.8569  170.0787 C.ar    1  UNL1        0.0233
     12 C         143.6819  142.2963  169.0212 C.ar    1  UNL1        0.0188
     13 C         142.8663  142.0799  167.7810 C.ar    1  UNL1        0.0601
     14 C         140.1878  143.5063  170.2010 C.2     1  UNL1        0.2587
     15 N         139.9367  144.9833  170.2757 N.am    1  UNL1       -0.3241
     16 O         139.2231  142.5486  170.8351 O.2     1  UNL1       -0.2688
     17 H         140.5699  145.6119  169.8595 H       1  UNL1        0.1453
     18 H         139.1388  145.3240  170.7410 H       1  UNL1        0.1453
     19 C         144.0168  143.4444  162.0642 C.2     1  UNL1        0.4062
     20 O         143.3548  144.7626  162.3364 O.2     1  UNL1       -0.2260
     21 N         143.7514  142.7236  160.7758 N.am    1  UNL1       -0.2689
     22 H         144.1858  141.8584  160.5972 H       1  UNL1        0.1528
     23 C         142.8240  143.3212  159.7594 C.3     1  UNL1        0.1100
     24 C         141.3527  143.0369  159.8278 C.3     1  UNL1        0.0938
     25 N         140.8094  142.1522  160.9104 N.3     1  UNL1       -0.2683
     26 C         140.6838  140.6753  160.6798 C.3     1  UNL1        0.0939
     27 C         140.1405  139.7907  161.7624 C.3     1  UNL1        0.1081
     28 N         139.7226  140.3828  163.0757 N.pl3   1  UNL1       -0.3046
     29 C         139.8482  141.8596  163.3064 C.3     1  UNL1        0.1081
     30 C         140.3916  142.7443  162.2238 C.3     1  UNL1        0.0939
     31 C         139.1793  139.4981  164.1583 C.ar    1  UNL1        0.0479
     32 C         138.4111  140.0953  165.2999 C.ar    1  UNL1        0.0145
     33 C         137.8677  139.2107  166.3825 C.ar    1  UNL1        0.0013
     34 C         138.0925  137.7288  166.3236 C.ar    1  UNL1        0.0001
     35 C         138.8606  137.1316  165.1820 C.ar    1  UNL1        0.0013
     36 C         139.4041  138.0162  164.0993 C.ar    1  UNL1        0.0145
@<TRIPOS>BOND
     1     8     9    1
     2     9    10   ar
     3    10    14    1
     4    14    15   am
     5    14    16    2
     6    10    11   ar
     7    11    12   ar
     8    12    13   ar
     9    13     2    1
    10     2     3   ar
    11     3     4   ar
    12     4     5   ar
    13     5     6   ar
    14     6     1    1
    15     1    19    1
    16    19    20    2
    17    19    21   am
    18    21    23    1
    19    23    24    1
    20    24    25    1
    21    25    26    1
    22    26    27    1
    23    27    28    1
    24    28    31    1
    25    31    32   ar
    26    32    33   ar
    27    33    34   ar
    28    34    35   ar
    29    35    36   ar
    30    28    29    1
    31    29    30    1
    32     6     7   ar
    33    13     9   ar
    34     7     2   ar
    35    30    25    1
    36    36    31   ar
    37    15    17    1
    38    15    18    1
    39    21    22    1
@<TRIPOS>MOLECULE
*****
 36 39 0 0 0
SMALL
GASTEIGER

@<TRIPOS>ATOM
      1 O         145.1975  142.6550  163.2397 O.3     1  UNL1       -0.4103
      2 C         143.0968  140.8989  166.1125 C.ar    1  UNL1        0.0188
      3 C         143.5504  139.4766  165.9664 C.ar    1  UNL1        0.0016
      4 C         144.5530  139.1138  164.9115 C.ar    1  UNL1        0.0032
      5 C         145.1021  140.1733  164.0026 C.ar    1  UNL1        0.0377
      6 C         144.6485  141.5955  164.1486 C.ar    1  UNL1        0.1501
      7 C         143.6458  141.9583  165.2036 C.ar    1  UNL1        0.0391
      8 C         142.5826  139.2899  168.9047 C.3     1  UNL1        0.1306
      9 N         141.8577  140.5222  168.4509 N.ar    1  UNL1       -0.3216
     10 C         140.7693  141.2312  169.2008 C.ar    1  UNL1        0.1138
     11 C         140.3328  142.4091  168.3809 C.ar    1  UNL1        0.0233
     12 C         141.1516  142.4279  167.1242 C.ar    1  UNL1        0.0188
     13 C         142.0940  141.2617  167.1675 C.ar    1  UNL1        0.0601
     14 C         140.2146  140.8325  170.5363 C.2     1  UNL1        0.2587
     15 N         139.1684  139.7611  170.6243 N.am    1  UNL1       -0.3241
     16 O         140.7060  141.5051  171.7837 O.2     1  UNL1       -0.2688
     17 H         138.8458  139.3197  169.8056 H       1  UNL1        0.1453
     18 H         138.8044  139.4994  171.5008 H       1  UNL1        0.1453
     19 C         144.3008  143.3251  162.2413 C.2     1  UNL1        0.4062
     20 O         143.8054  144.7182  162.4944 O.2     1  UNL1       -0.2260
     21 N         143.8993  142.6021  160.9898 N.am    1  UNL1       -0.2689
     22 H         144.2244  141.6878  160.8237 H       1  UNL1        0.1528
     23 C         143.0025  143.2723  159.9914 C.3     1  UNL1        0.1100
     24 C         141.5189  143.0610  160.0555 C.3     1  UNL1        0.0938
     25 N         140.9296  142.2011  161.1341 N.3     1  UNL1       -0.2683
     26 C         140.7061  140.7383  160.8888 C.3     1  UNL1        0.0939
     27 C         140.1168  139.8784  161.9674 C.3     1  UNL1        0.1081
     28 N         139.7511  140.4814  163.2913 N.pl3   1  UNL1       -0.3046
     29 C         139.9746  141.9442  163.5366 C.3     1  UNL1        0.1081
     30 C         140.5639  142.8041  162.4580 C.3     1  UNL1        0.0939
     31 C         139.1619  139.6215  164.3699 C.ar    1  UNL1        0.0479
     32 C         138.6260  140.2507  165.6217 C.ar    1  UNL1        0.0145
     33 C         138.0368  139.3908  166.7003 C.ar    1  UNL1        0.0013
     34 C         137.9833  137.9018  166.5271 C.ar    1  UNL1        0.0001
     35 C         138.5191  137.2727  165.2753 C.ar    1  UNL1        0.0013
     36 C         139.1084  138.1325  164.1967 C.ar    1  UNL1        0.0145
@<TRIPOS>BOND
     1     8     9    1
     2     9    10   ar
     3    10    14    1
     4    14    15   am
     5    14    16    2
     6    10    11   ar
     7    11    12   ar
     8    12    13   ar
     9    13     2    1
    10     2     3   ar
    11     3     4   ar
    12     4     5   ar
    13     5     6   ar
    14     6     1    1
    15     1    19    1
    16    19    20    2
    17    19    21   am
    18    21    23    1
    19    23    24    1
    20    24    25    1
    21    25    26    1
    22    26    27    1
    23    27    28    1
    24    28    31    1
    25    31    32   ar
    26    32    33   ar
    27    33    34   ar
    28    34    35   ar
    29    35    36   ar
    30    28    29    1
    31    29    30    1
    32     6     7   ar
    33    13     9   ar
    34     7     2   ar
    35    30    25    1
    36    36    31   ar
    37    15    17    1
    38    15    18    1
    39    21    22    1
@<TRIPOS>MOLECULE
*****
 36 39 0 0 0
SMALL
GASTEIGER

@<TRIPOS>ATOM
      1 O         137.5263  142.2666  161.4934 O.3     1  UNL1       -0.4103
      2 C         140.3987  143.1443  164.0874 C.ar    1  UNL1        0.0188
      3 C         139.8207  144.3596  164.7499 C.ar    1  UNL1        0.0016
      4 C         138.4780  144.8772  164.3269 C.ar    1  UNL1        0.0032
      5 C         137.7131  144.1796  163.2414 C.ar    1  UNL1        0.0377
      6 C         138.2911  142.9643  162.5789 C.ar    1  UNL1        0.1501
      7 C         139.6339  142.4466  163.0019 C.ar    1  UNL1        0.0391
      8 C         142.5630  141.6326  162.1690 C.3     1  UNL1        0.1306
      9 N         142.7363  141.9318  163.6286 N.ar    1  UNL1       -0.3216
     10 C         143.9349  141.5886  164.4626 C.ar    1  UNL1        0.1138
     11 C         143.6809  142.0714  165.8599 C.ar    1  UNL1        0.0233
     12 C         142.3253  142.7129  165.8894 C.ar    1  UNL1        0.0188
     13 C         141.7415  142.6266  164.5103 C.ar    1  UNL1        0.0601
     14 C         145.1706  140.8860  163.9835 C.2     1  UNL1        0.2587
     15 N         145.3156  139.4060  164.1797 N.am    1  UNL1       -0.3241
     16 O         146.2612  141.6635  163.3082 O.2     1  UNL1       -0.2688
     17 H         144.5998  138.8957  164.6229 H       1  UNL1        0.1453
     18 H         146.1266  138.9449  163.8652 H       1  UNL1        0.1453
     19 C         137.7645  140.8102  161.2252 C.2     1  UNL1        0.4062
     20 O         138.0924  140.3470  159.8367 O.2     1  UNL1       -0.2260
     21 N         137.6748  139.8168  162.3456 N.am    1  UNL1       -0.2689
     22 H         137.4596  140.1207  163.2569 H       1  UNL1        0.1528
     23 C         137.9131  138.3603  162.0773 C.3     1  UNL1        0.1100
     24 C         138.7738  137.5574  163.0072 C.3     1  UNL1        0.0938
     25 N         139.3241  138.1879  164.2520 N.3     1  UNL1       -0.2683
     26 C         138.4032  138.5510  165.3790 C.3     1  UNL1        0.0939
     27 C         138.9536  139.1815  166.6238 C.3     1  UNL1        0.1081
     28 N         140.4248  139.4489  166.7417 N.pl3   1  UNL1       -0.3046
     29 C         141.3457  139.0858  165.6147 C.3     1  UNL1        0.1081
     30 C         140.7954  138.4553  164.3698 C.3     1  UNL1        0.0939
     31 C         140.9752  140.0794  167.9864 C.ar    1  UNL1        0.0479
     32 C         140.1574  141.0837  168.7431 C.ar    1  UNL1        0.0145
     33 C         140.7077  141.7142  169.9879 C.ar    1  UNL1        0.0013
     34 C         142.0759  141.3404  170.4761 C.ar    1  UNL1        0.0001
     35 C         142.8937  140.3361  169.7195 C.ar    1  UNL1        0.0013
     36 C         142.3434  139.7056  168.4746 C.ar    1  UNL1        0.0145
@<TRIPOS>BOND
     1     8     9    1
     2     9    10   ar
     3    10    14    1
     4    14    15   am
     5    14    16    2
     6    10    11   ar
     7    11    12   ar
     8    12    13   ar
     9    13     2    1
    10     2     3   ar
    11     3     4   ar
    12     4     5   ar
    13     5     6   ar
    14     6     1    1
    15     1    19    1
    16    19    20    2
    17    19    21   am
    18    21    23    1
    19    23    24    1
    20    24    25    1
    21    25    26    1
    22    26    27    1
    23    27    28    1
    24    28    31    1
    25    31    32   ar
    26    32    33   ar
    27    33    34   ar
    28    34    35   ar
    29    35    36   ar
    30    28    29    1
    31    29    30    1
    32     6     7   ar
    33    13     9   ar
    34     7     2   ar
    35    30    25    1
    36    36    31   ar
    37    15    17    1
    38    15    18    1
    39    21    22    1
