@<TRIPOS>MOLECULE
*****
 32 36 0 0 0
SMALL
GASTEIGER

@<TRIPOS>ATOM
      1 C         144.7855  142.0993  162.1051 C.3     1  UNL1        0.0730
      2 N         144.3482  141.0238  163.0549 N.3     1  UNL1       -0.2724
      3 C         145.1760  140.4297  164.1556 C.3     1  UNL1        0.0724
      4 C         144.3458  139.3923  164.8517 C.3     1  UNL1        0.0214
      5 C         143.2966  138.4374  165.3390 C.3     1  UNL1        0.0072
      6 C         143.0048  139.3453  164.1812 C.3     1  UNL1        0.0350
      7 C         143.0063  140.3536  163.0707 C.3     1  UNL1        0.0761
      8 C         141.6020  138.8649  163.9549 C.ar    1  UNL1       -0.0215
      9 C         141.2086  138.2994  162.6225 C.ar    1  UNL1       -0.0043
     10 C         139.8057  137.8190  162.3961 C.ar    1  UNL1       -0.0004
     11 C         138.7962  137.9041  163.5023 C.ar    1  UNL1        0.0038
     12 C         139.1896  138.4697  164.8349 C.ar    1  UNL1        0.0711
     13 C         140.5925  138.9501  165.0611 C.ar    1  UNL1       -0.0004
     14 C         138.1801  138.5548  165.9411 C.3     1  UNL1        0.4186
     15 F         137.1706  138.6399  167.0472 F       1  UNL1       -0.1659
     16 F         138.2470  137.0666  166.1167 F       1  UNL1       -0.1659
     17 F         138.1131  140.0430  165.7654 F       1  UNL1       -0.1659
     18 C         143.9218  143.3067  161.8901 C.3     1  UNL1        0.0294
     19 C         143.5631  144.1883  163.0495 C.3     1  UNL1        0.0666
     20 S         142.2694  143.9787  163.7791 S.3     1  UNL1       -0.0756
     21 C         141.5004  142.2393  167.1626 C.ar    1  UNL1        0.2029
     22 N         142.9986  142.1700  167.1349 N.ar    1  UNL1       -0.1250
     23 N         143.4689  142.8130  165.8641 N.ar    1  UNL1       -0.1220
     24 C         142.2615  143.2799  165.1064 C.ar    1  UNL1        0.1933
     25 N         141.0450  142.9253  165.9089 N.ar    1  UNL1       -0.2860
     26 C         139.6225  143.2072  165.5251 C.3     1  UNL1        0.1341
     27 C         140.6130  143.8530  169.8567 C.3     1  UNL1        0.0556
     28 C         140.2056  142.4565  169.4910 C.ar    1  UNL1        0.1001
     29 N         139.3188  141.5565  170.2995 N.ar    1  UNL1       -0.2085
     30 C         139.1787  140.2585  169.5608 C.ar    1  UNL1        0.2849
     31 O         139.9788  140.3563  168.2959 O.2     1  UNL1       -0.4283
     32 C         140.6135  141.7148  168.2528 C.ar    1  UNL1        0.1964
@<TRIPOS>BOND
     1    27    28    1
     2    28    29   ar
     3    29    30   ar
     4    30    31   ar
     5    31    32   ar
     6    32    21    1
     7    21    22   ar
     8    22    23   ar
     9    23    24   ar
    10    24    20    1
    11    20    19    1
    12    19    18    1
    13    18     1    1
    14     1     2    1
    15     2     3    1
    16     3     4    1
    17     4     5    1
    18     5     6    1
    19     6     8    1
    20     8     9   ar
    21     9    10   ar
    22    10    11   ar
    23    11    12   ar
    24    12    14    1
    25    14    15    1
    26    14    16    1
    27    14    17    1
    28    12    13   ar
    29     6     7    1
    30    24    25   ar
    31    25    26    1
    32    32    28   ar
    33    25    21   ar
    34     7     2    1
    35     6     4    1
    36    13     8   ar
@<TRIPOS>MOLECULE
*****
 32 36 0 0 0
SMALL
GASTEIGER

@<TRIPOS>ATOM
      1 C         142.3620  143.9340  161.0584 C.3     1  UNL1        0.0730
      2 N         142.9667  143.7919  162.4237 N.3     1  UNL1       -0.2724
      3 C         143.6634  144.8725  163.1963 C.3     1  UNL1        0.0724
      4 C         144.1082  144.2927  164.5062 C.3     1  UNL1        0.0214
      5 C         144.4210  143.4502  165.7071 C.3     1  UNL1        0.0072
      6 C         143.6864  142.8537  164.5433 C.3     1  UNL1        0.0350
      7 C         142.9810  142.5442  163.2562 C.3     1  UNL1        0.0761
      8 C         143.5471  141.4814  165.1325 C.ar    1  UNL1       -0.0215
      9 C         144.2154  140.3111  164.4738 C.ar    1  UNL1       -0.0043
     10 C         144.0761  138.9386  165.0630 C.ar    1  UNL1       -0.0004
     11 C         143.2685  138.7365  166.3108 C.ar    1  UNL1        0.0038
     12 C         142.6002  139.9069  166.9694 C.ar    1  UNL1        0.0711
     13 C         142.7395  141.2793  166.3803 C.ar    1  UNL1       -0.0004
     14 C         141.7926  139.7049  168.2173 C.3     1  UNL1        0.4186
     15 F         140.9851  139.5028  169.4650 F       1  UNL1       -0.1659
     16 F         142.8865  138.8511  168.7869 F       1  UNL1       -0.1659
     17 F         140.6988  140.5587  167.6476 F       1  UNL1       -0.1659
     18 C         140.9261  144.3426  160.9129 C.3     1  UNL1        0.0294
     19 C         140.3380  145.3607  161.8443 C.3     1  UNL1        0.0666
     20 S         139.0874  145.0432  162.6094 S.3     1  UNL1       -0.0756
     21 C         138.2532  141.3573  163.4942 C.ar    1  UNL1        0.2029
     22 N         137.4833  141.5305  162.2185 N.ar    1  UNL1       -0.1250
     23 N         137.7021  142.9323  161.7318 N.ar    1  UNL1       -0.1220
     24 C         138.6072  143.6255  162.7067 C.ar    1  UNL1        0.1933
     25 N         138.9477  142.6520  163.7959 N.ar    1  UNL1       -0.2860
     26 C         139.8283  142.9254  164.9791 C.3     1  UNL1        0.1341
     27 C         139.0723  138.3851  162.4240 C.3     1  UNL1        0.0556
     28 C         138.6936  138.7424  163.8308 C.ar    1  UNL1        0.1001
     29 N         138.6250  137.7961  164.9926 N.ar    1  UNL1       -0.2085
     30 C         138.2061  138.5774  166.2026 C.ar    1  UNL1        0.2849
     31 O         138.0158  140.0065  165.7886 O.2     1  UNL1       -0.4283
     32 C         138.3171  140.1084  164.3227 C.ar    1  UNL1        0.1964
@<TRIPOS>BOND
     1    27    28    1
     2    28    29   ar
     3    29    30   ar
     4    30    31   ar
     5    31    32   ar
     6    32    21    1
     7    21    22   ar
     8    22    23   ar
     9    23    24   ar
    10    24    20    1
    11    20    19    1
    12    19    18    1
    13    18     1    1
    14     1     2    1
    15     2     3    1
    16     3     4    1
    17     4     5    1
    18     5     6    1
    19     6     8    1
    20     8     9   ar
    21     9    10   ar
    22    10    11   ar
    23    11    12   ar
    24    12    14    1
    25    14    15    1
    26    14    16    1
    27    14    17    1
    28    12    13   ar
    29     6     7    1
    30    24    25   ar
    31    25    26    1
    32    32    28   ar
    33    25    21   ar
    34     7     2    1
    35     6     4    1
    36    13     8   ar
@<TRIPOS>MOLECULE
*****
 32 36 0 0 0
SMALL
GASTEIGER

@<TRIPOS>ATOM
      1 C         144.9479  139.7803  164.0098 C.3     1  UNL1        0.0730
      2 N         143.5446  139.5211  164.4720 N.3     1  UNL1       -0.2724
      3 C         142.5045  138.7323  163.7332 C.3     1  UNL1        0.0724
      4 C         141.2521  138.7288  164.5588 C.3     1  UNL1        0.0214
      5 C         140.1700  138.8976  165.5836 C.3     1  UNL1        0.0072
      6 C         141.5183  139.5155  165.8079 C.3     1  UNL1        0.0350
      7 C         142.9351  140.0051  165.7543 C.3     1  UNL1        0.0761
      8 C         141.1906  140.1287  167.1370 C.ar    1  UNL1       -0.0215
      9 C         139.8444  139.8990  167.7575 C.ar    1  UNL1       -0.0043
     10 C         139.5167  140.5123  169.0867 C.ar    1  UNL1       -0.0004
     11 C         140.5353  141.3551  169.7953 C.ar    1  UNL1        0.0038
     12 C         141.8815  141.5848  169.1748 C.ar    1  UNL1        0.0711
     13 C         142.2092  140.9716  167.8456 C.ar    1  UNL1       -0.0004
     14 C         142.9001  142.4276  169.8834 C.3     1  UNL1        0.4186
     15 F         143.9186  143.2705  170.5920 F       1  UNL1       -0.1659
     16 F         141.9694  143.6025  169.8237 F       1  UNL1       -0.1659
     17 F         143.8308  141.2528  169.9431 F       1  UNL1       -0.1659
     18 C         145.5167  141.1664  164.0801 C.3     1  UNL1        0.0294
     19 C         145.4863  142.0519  162.8696 C.3     1  UNL1        0.0666
     20 S         144.4964  143.1759  162.7873 S.3     1  UNL1       -0.0756
     21 C         140.7637  142.3696  163.4815 C.ar    1  UNL1        0.2029
     22 N         141.1604  143.0347  164.7661 N.ar    1  UNL1       -0.1250
     23 N         142.6068  143.4177  164.6624 N.ar    1  UNL1       -0.1220
     24 C         143.1042  142.9893  163.3137 C.ar    1  UNL1        0.1933
     25 N         141.9651  142.3415  162.5839 N.ar    1  UNL1       -0.2860
     26 C         142.0181  141.7666  161.1994 C.3     1  UNL1        0.1341
     27 C         137.9376  143.9766  163.7657 C.3     1  UNL1        0.0556
     28 C         138.1053  142.5663  163.2830 C.ar    1  UNL1        0.1001
     29 N         137.0034  141.6471  162.8461 N.ar    1  UNL1       -0.2085
     30 C         137.6214  140.3403  162.4455 C.ar    1  UNL1        0.2849
     31 O         139.1051  140.4519  162.6348 O.2     1  UNL1       -0.4283
     32 C         139.4042  141.8277  163.1523 C.ar    1  UNL1        0.1964
@<TRIPOS>BOND
     1    27    28    1
     2    28    29   ar
     3    29    30   ar
     4    30    31   ar
     5    31    32   ar
     6    32    21    1
     7    21    22   ar
     8    22    23   ar
     9    23    24   ar
    10    24    20    1
    11    20    19    1
    12    19    18    1
    13    18     1    1
    14     1     2    1
    15     2     3    1
    16     3     4    1
    17     4     5    1
    18     5     6    1
    19     6     8    1
    20     8     9   ar
    21     9    10   ar
    22    10    11   ar
    23    11    12   ar
    24    12    14    1
    25    14    15    1
    26    14    16    1
    27    14    17    1
    28    12    13   ar
    29     6     7    1
    30    24    25   ar
    31    25    26    1
    32    32    28   ar
    33    25    21   ar
    34     7     2    1
    35     6     4    1
    36    13     8   ar
@<TRIPOS>MOLECULE
*****
 32 36 0 0 0
SMALL
GASTEIGER

@<TRIPOS>ATOM
      1 C         141.8237  145.5590  163.5005 C.3     1  UNL1        0.0730
      2 N         142.7506  144.3992  163.7143 N.3     1  UNL1       -0.2724
      3 C         143.9918  144.1053  162.9250 C.3     1  UNL1        0.0724
      4 C         144.6074  142.8541  163.4779 C.3     1  UNL1        0.0214
      5 C         144.9797  141.6101  164.2285 C.3     1  UNL1        0.0072
      6 C         143.7466  142.3747  164.6088 C.3     1  UNL1        0.0350
      7 C         142.5990  143.3296  164.7550 C.3     1  UNL1        0.0761
      8 C         143.3372  141.4650  165.7290 C.ar    1  UNL1       -0.0215
      9 C         143.2028  139.9908  165.4869 C.ar    1  UNL1       -0.0043
     10 C         142.7934  139.0810  166.6071 C.ar    1  UNL1       -0.0004
     11 C         142.5185  139.6455  167.9694 C.ar    1  UNL1        0.0038
     12 C         142.6530  141.1198  168.2115 C.ar    1  UNL1        0.0711
     13 C         143.0623  142.0295  167.0913 C.ar    1  UNL1       -0.0004
     14 C         142.3781  141.6842  169.5738 C.3     1  UNL1        0.4186
     15 F         142.1032  142.2487  170.9360 F       1  UNL1       -0.1659
     16 F         141.4245  140.5592  169.8475 F       1  UNL1       -0.1659
     17 F         143.3317  142.8093  169.3000 F       1  UNL1       -0.1659
     18 C         140.5640  145.3759  162.7070 C.3     1  UNL1        0.0294
     19 C         140.6313  145.2321  161.2155 C.3     1  UNL1        0.0666
     20 S         139.9931  144.0510  160.5463 S.3     1  UNL1       -0.0756
     21 C         138.7100  141.1284  162.7547 C.ar    1  UNL1        0.2029
     22 N         137.4333  141.8666  162.4804 N.ar    1  UNL1       -0.1250
     23 N         137.7586  143.0511  161.6198 N.ar    1  UNL1       -0.1220
     24 C         139.2363  143.0452  161.3621 C.ar    1  UNL1        0.1933
     25 N         139.8242  141.8569  162.0636 N.ar    1  UNL1       -0.2860
     26 C         141.2724  141.4657  162.0724 C.3     1  UNL1        0.1341
     27 C         139.5778  140.9870  165.8975 C.3     1  UNL1        0.0556
     28 C         139.2470  139.8158  165.0205 C.ar    1  UNL1        0.1001
     29 N         139.2570  138.3741  165.4343 N.ar    1  UNL1       -0.2085
     30 C         138.8643  137.5480  164.2454 C.ar    1  UNL1        0.2849
     31 O         138.6116  138.4792  163.0970 O.2     1  UNL1       -0.4283
     32 C         138.8481  139.8808  163.5761 C.ar    1  UNL1        0.1964
@<TRIPOS>BOND
     1    27    28    1
     2    28    29   ar
     3    29    30   ar
     4    30    31   ar
     5    31    32   ar
     6    32    21    1
     7    21    22   ar
     8    22    23   ar
     9    23    24   ar
    10    24    20    1
    11    20    19    1
    12    19    18    1
    13    18     1    1
    14     1     2    1
    15     2     3    1
    16     3     4    1
    17     4     5    1
    18     5     6    1
    19     6     8    1
    20     8     9   ar
    21     9    10   ar
    22    10    11   ar
    23    11    12   ar
    24    12    14    1
    25    14    15    1
    26    14    16    1
    27    14    17    1
    28    12    13   ar
    29     6     7    1
    30    24    25   ar
    31    25    26    1
    32    32    28   ar
    33    25    21   ar
    34     7     2    1
    35     6     4    1
    36    13     8   ar
@<TRIPOS>MOLECULE
*****
 32 36 0 0 0
SMALL
GASTEIGER

@<TRIPOS>ATOM
      1 C         144.0954  139.4257  162.8635 C.3     1  UNL1        0.0730
      2 N         142.6979  138.8882  162.9546 N.3     1  UNL1       -0.2724
      3 C         141.9815  138.1102  161.8910 C.3     1  UNL1        0.0724
      4 C         140.6123  137.7755  162.4043 C.3     1  UNL1        0.0214
      5 C         139.3373  137.5956  163.1736 C.3     1  UNL1        0.0072
      6 C         140.4826  138.3466  163.7852 C.3     1  UNL1        0.0350
      7 C         141.7716  139.0343  164.1253 C.3     1  UNL1        0.0761
      8 C         139.7958  138.6498  165.0838 C.ar    1  UNL1       -0.0215
      9 C         138.4910  137.9878  165.4145 C.ar    1  UNL1       -0.0043
     10 C         137.8041  138.2909  166.7131 C.ar    1  UNL1       -0.0004
     11 C         138.4220  139.2560  167.6810 C.ar    1  UNL1        0.0038
     12 C         139.7268  139.9180  167.3502 C.ar    1  UNL1        0.0711
     13 C         140.4137  139.6149  166.0517 C.ar    1  UNL1       -0.0004
     14 C         140.3448  140.8831  168.3181 C.3     1  UNL1        0.4186
     15 F         140.9626  141.8481  169.2859 F       1  UNL1       -0.1659
     16 F         140.6333  139.7527  169.2610 F       1  UNL1       -0.1659
     17 F         140.0562  142.0135  167.3752 F       1  UNL1       -0.1659
     18 C         144.7267  140.0796  164.0568 C.3     1  UNL1        0.0294
     19 C         145.7023  141.2031  163.8677 C.3     1  UNL1        0.0666
     20 S         145.2411  142.6253  163.9889 S.3     1  UNL1       -0.0756
     21 C         141.8213  143.6528  162.4676 C.ar    1  UNL1        0.2029
     22 N         142.7598  144.0536  161.3682 N.ar    1  UNL1       -0.1250
     23 N         144.1550  143.7175  161.8042 N.ar    1  UNL1       -0.1220
     24 C         144.0789  143.1090  163.1731 C.ar    1  UNL1        0.1933
     25 N         142.6366  143.0690  163.5830 N.ar    1  UNL1       -0.2860
     26 C         142.1032  142.5383  164.8807 C.3     1  UNL1        0.1341
     27 C         139.6885  141.5786  161.1264 C.3     1  UNL1        0.0556
     28 C         139.3492  142.8551  161.8373 C.ar    1  UNL1        0.1001
     29 N         137.9699  143.4023  162.0566 N.ar    1  UNL1       -0.2085
     30 C         138.0977  144.6938  162.8086 C.ar    1  UNL1        0.2849
     31 O         139.5560  144.9449  163.0541 O.2     1  UNL1       -0.4283
     32 C         140.3294  143.8084  162.4538 C.ar    1  UNL1        0.1964
@<TRIPOS>BOND
     1    27    28    1
     2    28    29   ar
     3    29    30   ar
     4    30    31   ar
     5    31    32   ar
     6    32    21    1
     7    21    22   ar
     8    22    23   ar
     9    23    24   ar
    10    24    20    1
    11    20    19    1
    12    19    18    1
    13    18     1    1
    14     1     2    1
    15     2     3    1
    16     3     4    1
    17     4     5    1
    18     5     6    1
    19     6     8    1
    20     8     9   ar
    21     9    10   ar
    22    10    11   ar
    23    11    12   ar
    24    12    14    1
    25    14    15    1
    26    14    16    1
    27    14    17    1
    28    12    13   ar
    29     6     7    1
    30    24    25   ar
    31    25    26    1
    32    32    28   ar
    33    25    21   ar
    34     7     2    1
    35     6     4    1
    36    13     8   ar
@<TRIPOS>MOLECULE
*****
 32 36 0 0 0
SMALL
GASTEIGER

@<TRIPOS>ATOM
      1 C         139.8100  137.6776  163.2559 C.3     1  UNL1        0.0730
      2 N         140.8463  138.1166  164.2475 N.3     1  UNL1       -0.2724
      3 C         142.3188  137.8430  164.1634 C.3     1  UNL1        0.0724
      4 C         142.9747  138.4636  165.3612 C.3     1  UNL1        0.0214
      5 C         143.3386  139.1722  166.6321 C.3     1  UNL1        0.0072
      6 C         141.9076  139.1206  166.1856 C.3     1  UNL1        0.0350
      7 C         140.5922  138.9062  165.4972 C.3     1  UNL1        0.0761
      8 C         141.3543  139.8994  167.3420 C.ar    1  UNL1       -0.0215
      9 C         139.9263  139.7090  167.7598 C.ar    1  UNL1       -0.0043
     10 C         139.3729  140.4879  168.9163 C.ar    1  UNL1       -0.0004
     11 C         140.2476  141.4571  169.6549 C.ar    1  UNL1        0.0038
     12 C         141.6757  141.6475  169.2370 C.ar    1  UNL1        0.0711
     13 C         142.2290  140.8687  168.0806 C.ar    1  UNL1       -0.0004
     14 C         142.5504  142.6167  169.9757 C.3     1  UNL1        0.4186
     15 F         143.4250  143.5859  170.7142 F       1  UNL1       -0.1659
     16 F         141.4439  143.6293  169.9572 F       1  UNL1       -0.1659
     17 F         143.6569  141.6041  169.9941 F       1  UNL1       -0.1659
     18 C         138.4411  138.2902  163.2808 C.3     1  UNL1        0.0294
     19 C         138.0277  139.2470  162.2021 C.3     1  UNL1        0.0666
     20 S         137.8190  140.6969  162.5251 S.3     1  UNL1       -0.0756
     21 C         140.7276  142.4635  164.3916 C.ar    1  UNL1        0.2029
     22 N         139.6540  142.4880  165.4388 N.ar    1  UNL1       -0.1250
     23 N         138.4338  141.8292  164.8671 N.ar    1  UNL1       -0.1220
     24 C         138.7532  141.3976  163.4665 C.ar    1  UNL1        0.1933
     25 N         140.1709  141.7896  163.1727 N.ar    1  UNL1       -0.2860
     26 C         140.9033  141.5498  161.8858 C.3     1  UNL1        0.1341
     27 C         141.7217  145.4255  163.4491 C.3     1  UNL1        0.0556
     28 C         142.5715  144.3774  164.1045 C.ar    1  UNL1        0.1001
     29 N         144.0273  144.5068  164.4418 N.ar    1  UNL1       -0.2085
     30 C         144.4701  143.2254  165.0835 C.ar    1  UNL1        0.2849
     31 O         143.2880  142.3040  165.1428 O.2     1  UNL1       -0.4283
     32 C         142.1146  143.0160  164.5377 C.ar    1  UNL1        0.1964
@<TRIPOS>BOND
     1    27    28    1
     2    28    29   ar
     3    29    30   ar
     4    30    31   ar
     5    31    32   ar
     6    32    21    1
     7    21    22   ar
     8    22    23   ar
     9    23    24   ar
    10    24    20    1
    11    20    19    1
    12    19    18    1
    13    18     1    1
    14     1     2    1
    15     2     3    1
    16     3     4    1
    17     4     5    1
    18     5     6    1
    19     6     8    1
    20     8     9   ar
    21     9    10   ar
    22    10    11   ar
    23    11    12   ar
    24    12    14    1
    25    14    15    1
    26    14    16    1
    27    14    17    1
    28    12    13   ar
    29     6     7    1
    30    24    25   ar
    31    25    26    1
    32    32    28   ar
    33    25    21   ar
    34     7     2    1
    35     6     4    1
    36    13     8   ar
@<TRIPOS>MOLECULE
*****
 32 36 0 0 0
SMALL
GASTEIGER

@<TRIPOS>ATOM
      1 C         141.8583  145.4082  163.5826 C.3     1  UNL1        0.0730
      2 N         140.5681  144.6526  163.7032 N.3     1  UNL1       -0.2724
      3 C         139.2757  145.0010  163.0263 C.3     1  UNL1        0.0724
      4 C         138.2527  143.9796  163.4266 C.3     1  UNL1        0.0214
      5 C         137.4655  142.8354  163.9931 C.3     1  UNL1        0.0072
      6 C         138.9129  142.9999  164.3509 C.3     1  UNL1        0.0350
      7 C         140.3439  143.4158  164.5218 C.3     1  UNL1        0.0761
      8 C         138.9912  141.7976  165.2443 C.ar    1  UNL1       -0.0215
      9 C         138.0444  140.6515  165.0441 C.ar    1  UNL1       -0.0043
     10 C         138.1227  139.4491  165.9376 C.ar    1  UNL1       -0.0004
     11 C         139.1478  139.3928  167.0312 C.ar    1  UNL1        0.0038
     12 C         140.0947  140.5390  167.2313 C.ar    1  UNL1        0.0711
     13 C         140.0164  141.7413  166.3379 C.ar    1  UNL1       -0.0004
     14 C         141.1199  140.4827  168.3249 C.3     1  UNL1        0.4186
     15 F         142.1450  140.4264  169.4184 F       1  UNL1       -0.1659
     16 F         140.3883  141.5622  169.0662 F       1  UNL1       -0.1659
     17 F         141.8514  139.4032  167.5835 F       1  UNL1       -0.1659
     18 C         143.1537  144.7425  163.9414 C.3     1  UNL1        0.0294
     19 C         144.1595  144.4335  162.8724 C.3     1  UNL1        0.0666
     20 S         144.2802  143.0374  162.3372 S.3     1  UNL1       -0.0756
     21 C         141.6712  140.2719  163.1182 C.ar    1  UNL1        0.2029
     22 N         142.4973  140.2528  164.3701 N.ar    1  UNL1       -0.1250
     23 N         143.5752  141.2864  164.2299 N.ar    1  UNL1       -0.1220
     24 C         143.4153  141.9443  162.8914 C.ar    1  UNL1        0.1933
     25 N         142.2385  141.3172  162.2044 N.ar    1  UNL1       -0.2860
     26 C         141.7201  141.6732  160.8425 C.3     1  UNL1        0.1341
     27 C         141.2046  137.2416  164.2362 C.3     1  UNL1        0.0556
     28 C         140.2714  138.0060  163.3446 C.ar    1  UNL1        0.1001
     29 N         138.9598  137.5116  162.8105 N.ar    1  UNL1       -0.2085
     30 C         138.3636  138.5989  161.9664 C.ar    1  UNL1        0.2849
     31 O         139.3067  139.7652  161.9790 O.2     1  UNL1       -0.4283
     32 C         140.4858  139.3987  162.8308 C.ar    1  UNL1        0.1964
@<TRIPOS>BOND
     1    27    28    1
     2    28    29   ar
     3    29    30   ar
     4    30    31   ar
     5    31    32   ar
     6    32    21    1
     7    21    22   ar
     8    22    23   ar
     9    23    24   ar
    10    24    20    1
    11    20    19    1
    12    19    18    1
    13    18     1    1
    14     1     2    1
    15     2     3    1
    16     3     4    1
    17     4     5    1
    18     5     6    1
    19     6     8    1
    20     8     9   ar
    21     9    10   ar
    22    10    11   ar
    23    11    12   ar
    24    12    14    1
    25    14    15    1
    26    14    16    1
    27    14    17    1
    28    12    13   ar
    29     6     7    1
    30    24    25   ar
    31    25    26    1
    32    32    28   ar
    33    25    21   ar
    34     7     2    1
    35     6     4    1
    36    13     8   ar
@<TRIPOS>MOLECULE
*****
 32 36 0 0 0
SMALL
GASTEIGER

@<TRIPOS>ATOM
      1 C         138.1864  139.9447  162.4021 C.3     1  UNL1        0.0730
      2 N         138.4774  141.2494  163.0825 N.3     1  UNL1       -0.2724
      3 C         137.4682  142.1499  163.7310 C.3     1  UNL1        0.0724
      4 C         138.1958  143.3398  164.2832 C.3     1  UNL1        0.0214
      5 C         139.1772  144.3872  164.7188 C.3     1  UNL1        0.0072
      6 C         139.6546  143.1747  163.9759 C.3     1  UNL1        0.0350
      7 C         139.8287  141.8828  163.2339 C.3     1  UNL1        0.0761
      8 C         141.1057  143.5545  163.9720 C.ar    1  UNL1       -0.0215
      9 C         141.5034  144.9956  163.8497 C.ar    1  UNL1       -0.0043
     10 C         142.9546  145.3755  163.8457 C.ar    1  UNL1       -0.0004
     11 C         144.0080  144.3142  163.9641 C.ar    1  UNL1        0.0038
     12 C         143.6102  142.8730  164.0864 C.ar    1  UNL1        0.0711
     13 C         142.1591  142.4932  164.0903 C.ar    1  UNL1       -0.0004
     14 C         144.6636  141.8117  164.2047 C.3     1  UNL1        0.4186
     15 F         145.7170  140.7505  164.3231 F       1  UNL1       -0.1659
     16 F         144.0292  141.3235  165.4733 F       1  UNL1       -0.1659
     17 F         145.2980  142.2999  162.9362 F       1  UNL1       -0.1659
     18 C         139.2176  139.3165  161.5122 C.3     1  UNL1        0.0294
     19 C         140.2110  138.3481  162.0828 C.3     1  UNL1        0.0666
     20 S         139.9701  137.7326  163.4294 S.3     1  UNL1       -0.0756
     21 C         140.5545  139.5603  166.8032 C.ar    1  UNL1        0.2029
     22 N         141.9652  139.3556  166.3363 N.ar    1  UNL1       -0.1250
     23 N         141.9180  138.6461  165.0157 N.ar    1  UNL1       -0.1220
     24 C         140.4781  138.4122  164.6663 C.ar    1  UNL1        0.1933
     25 N         139.6354  138.9773  165.7711 N.ar    1  UNL1       -0.2860
     26 C         138.1367  138.9619  165.8329 C.3     1  UNL1        0.1341
     27 C         141.0596  142.6891  167.5811 C.3     1  UNL1        0.0556
     28 C         140.3684  141.6685  168.4360 C.ar    1  UNL1        0.1001
     29 N         139.7881  141.9070  169.7985 N.ar    1  UNL1       -0.2085
     30 C         139.1973  140.6162  170.2830 C.ar    1  UNL1        0.2849
     31 O         139.4124  139.5801  169.2200 O.2     1  UNL1       -0.4283
     32 C         140.1362  140.2305  168.0785 C.ar    1  UNL1        0.1964
@<TRIPOS>BOND
     1    27    28    1
     2    28    29   ar
     3    29    30   ar
     4    30    31   ar
     5    31    32   ar
     6    32    21    1
     7    21    22   ar
     8    22    23   ar
     9    23    24   ar
    10    24    20    1
    11    20    19    1
    12    19    18    1
    13    18     1    1
    14     1     2    1
    15     2     3    1
    16     3     4    1
    17     4     5    1
    18     5     6    1
    19     6     8    1
    20     8     9   ar
    21     9    10   ar
    22    10    11   ar
    23    11    12   ar
    24    12    14    1
    25    14    15    1
    26    14    16    1
    27    14    17    1
    28    12    13   ar
    29     6     7    1
    30    24    25   ar
    31    25    26    1
    32    32    28   ar
    33    25    21   ar
    34     7     2    1
    35     6     4    1
    36    13     8   ar
@<TRIPOS>MOLECULE
*****
 32 36 0 0 0
SMALL
GASTEIGER

@<TRIPOS>ATOM
      1 C         139.2664  138.6809  161.4037 C.3     1  UNL1        0.0730
      2 N         140.3244  138.5976  162.4637 N.3     1  UNL1       -0.2724
      3 C         140.5070  137.4743  163.4409 C.3     1  UNL1        0.0724
      4 C         141.6810  137.8055  164.3139 C.3     1  UNL1        0.0214
      5 C         142.8688  138.3973  165.0130 C.3     1  UNL1        0.0072
      6 C         142.2241  139.1334  163.8762 C.3     1  UNL1        0.0350
      7 C         141.3856  139.6230  162.7328 C.3     1  UNL1        0.0761
      8 C         143.1505  140.3127  163.9075 C.ar    1  UNL1       -0.0215
      9 C         144.6278  140.1020  164.0597 C.ar    1  UNL1       -0.0043
     10 C         145.5543  141.2814  164.0910 C.ar    1  UNL1       -0.0004
     11 C         145.0034  142.6713  163.9702 C.ar    1  UNL1        0.0038
     12 C         143.5260  142.8819  163.8180 C.ar    1  UNL1        0.0711
     13 C         142.5996  141.7027  163.7867 C.ar    1  UNL1       -0.0004
     14 C         142.9751  144.2719  163.6972 C.3     1  UNL1        0.4186
     15 F         142.4243  145.6618  163.5764 F       1  UNL1       -0.1659
     16 F         144.1281  144.7986  164.4992 F       1  UNL1       -0.1659
     17 F         141.8222  143.7452  162.8951 F       1  UNL1       -0.1659
     18 C         138.0090  139.4580  161.6584 C.3     1  UNL1        0.0294
     19 C         138.0790  140.9337  161.9181 C.3     1  UNL1        0.0666
     20 S         137.5200  141.4987  163.1903 S.3     1  UNL1       -0.0756
     21 C         139.7465  141.6059  166.3677 C.ar    1  UNL1        0.2029
     22 N         139.9384  142.9939  165.8324 N.ar    1  UNL1       -0.1250
     23 N         139.1278  143.1227  164.5770 N.ar    1  UNL1       -0.1220
     24 C         138.4348  141.8143  164.3364 C.ar    1  UNL1        0.1933
     25 N         138.8173  140.8769  165.4431 N.ar    1  UNL1       -0.2860
     26 C         138.3520  139.4592  165.5981 C.3     1  UNL1        0.1341
     27 C         142.8618  141.9623  167.2720 C.3     1  UNL1        0.0556
     28 C         141.8057  141.2091  168.0253 C.ar    1  UNL1        0.1001
     29 N         141.9961  140.4876  169.3264 N.ar    1  UNL1       -0.2085
     30 C         140.6819  139.8778  169.7149 C.ar    1  UNL1        0.2849
     31 O         139.6793  140.2224  168.6539 O.2     1  UNL1       -0.4283
     32 C         140.3738  141.0453  167.6096 C.ar    1  UNL1        0.1964
@<TRIPOS>BOND
     1    27    28    1
     2    28    29   ar
     3    29    30   ar
     4    30    31   ar
     5    31    32   ar
     6    32    21    1
     7    21    22   ar
     8    22    23   ar
     9    23    24   ar
    10    24    20    1
    11    20    19    1
    12    19    18    1
    13    18     1    1
    14     1     2    1
    15     2     3    1
    16     3     4    1
    17     4     5    1
    18     5     6    1
    19     6     8    1
    20     8     9   ar
    21     9    10   ar
    22    10    11   ar
    23    11    12   ar
    24    12    14    1
    25    14    15    1
    26    14    16    1
    27    14    17    1
    28    12    13   ar
    29     6     7    1
    30    24    25   ar
    31    25    26    1
    32    32    28   ar
    33    25    21   ar
    34     7     2    1
    35     6     4    1
    36    13     8   ar
