@<TRIPOS>MOLECULE
*****
 24 27 0 0 0
SMALL
GASTEIGER

@<TRIPOS>ATOM
      1 CL        139.7358  139.7699  171.0758 Cl      1  UNL1       -0.0821
      2 C         140.5969  140.4103  170.0278 C.ar    1  UNL1        0.0615
      3 C         142.0651  140.5943  170.2732 C.ar    1  UNL1        0.0129
      4 C         142.9263  141.2347  169.2251 C.ar    1  UNL1        0.0192
      5 C         142.3191  141.6911  167.9317 C.ar    1  UNL1        0.0920
      6 C         140.8508  141.5071  167.6862 C.ar    1  UNL1        0.2072
      7 C         139.9897  140.8667  168.7343 C.ar    1  UNL1        0.0593
      8 N         140.0499  141.8874  166.4763 N.2     1  UNL1       -0.0388
      9 C         140.5197  142.5457  165.2130 C.2     1  UNL1        0.3251
     10 C         141.9062  142.9863  164.8475 C.ar    1  UNL1        0.0956
     11 C         141.9426  143.6040  163.4811 C.ar    1  UNL1        0.0086
     12 C         143.2384  144.1127  162.9224 C.ar    1  UNL1        0.0003
     13 C         144.4976  144.0037  163.7300 C.ar    1  UNL1        0.0013
     14 C         144.4612  143.3860  165.0964 C.ar    1  UNL1        0.0149
     15 C         143.1654  142.8773  165.6551 C.ar    1  UNL1        0.0556
     16 N         143.3492  142.3009  167.0277 N.pl3   1  UNL1       -0.3094
     17 H         144.2673  142.3261  167.3822 H       1  UNL1        0.1523
     18 N         139.4631  142.7967  164.1782 N.pl3   1  UNL1       -0.1877
     19 C         138.7815  144.1313  164.1106 C.3     1  UNL1        0.2195
     20 C         137.7250  144.3822  163.0758 C.3     1  UNL1        0.1202
     21 N         137.3500  143.2987  162.1087 N.3     1  UNL1       -0.2906
     22 C         138.0315  141.9642  162.1763 C.3     1  UNL1        0.1202
     23 C         139.0880  141.7132  163.2110 C.3     1  UNL1        0.2195
     24 H         137.5182  143.6681  161.1729 H       1  UNL1        0.1235
@<TRIPOS>BOND
     1     1     2    1
     2     2     3   ar
     3     3     4   ar
     4     4     5   ar
     5     5     6   ar
     6     6     7   ar
     7     6     8    1
     8     8     9    2
     9     9    18    1
    10    18    19    1
    11    19    20    1
    12    20    21    1
    13    21    22    1
    14    22    23    1
    15     9    10    1
    16    10    11   ar
    17    11    12   ar
    18    12    13   ar
    19    13    14   ar
    20    14    15   ar
    21    15    16    1
    22     7     2   ar
    23    23    18    1
    24    15    10   ar
    25    16     5    1
    26    21    24    1
    27    16    17    1
@<TRIPOS>MOLECULE
*****
 24 27 0 0 0
SMALL
GASTEIGER

@<TRIPOS>ATOM
      1 CL        143.0097  139.7361  170.5807 Cl      1  UNL1       -0.0821
      2 C         142.2616  140.5939  169.6037 C.ar    1  UNL1        0.0615
      3 C         141.9277  142.0135  169.9544 C.ar    1  UNL1        0.0129
      4 C         141.1796  142.8713  168.9773 C.ar    1  UNL1        0.0192
      5 C         140.7655  142.3095  167.6497 C.ar    1  UNL1        0.0920
      6 C         141.0994  140.8897  167.2990 C.ar    1  UNL1        0.2072
      7 C         141.8475  140.0319  168.2760 C.ar    1  UNL1        0.0593
      8 N         140.7830  140.1381  166.0400 N.2     1  UNL1       -0.0388
      9 C         140.0545  140.6206  164.8208 C.2     1  UNL1        0.3251
     10 C         139.4625  141.9739  164.5593 C.ar    1  UNL1        0.0956
     11 C         138.8184  142.0381  163.2063 C.ar    1  UNL1        0.0086
     12 C         138.1645  143.3073  162.7464 C.ar    1  UNL1        0.0003
     13 C         138.1547  144.5123  163.6397 C.ar    1  UNL1        0.0013
     14 C         138.7989  144.4481  164.9928 C.ar    1  UNL1        0.0149
     15 C         139.4528  143.1788  165.4526 C.ar    1  UNL1        0.0556
     16 N         140.0327  143.3281  166.8279 N.pl3   1  UNL1       -0.3094
     17 H         139.9170  144.2116  167.2467 H       1  UNL1        0.1523
     18 N         139.8972  139.6172  163.7170 N.pl3   1  UNL1       -0.1877
     19 C         138.6533  138.7831  163.6333 C.3     1  UNL1        0.2195
     20 C         138.4960  137.7796  162.5295 C.3     1  UNL1        0.1202
     21 N         139.5827  137.6103  161.5093 N.3     1  UNL1       -0.2906
     22 C         140.8265  138.4444  161.5930 C.3     1  UNL1        0.1202
     23 C         140.9838  139.4478  162.6968 C.3     1  UNL1        0.2195
     24 H         139.1633  137.7976  160.5986 H       1  UNL1        0.1235
@<TRIPOS>BOND
     1     1     2    1
     2     2     3   ar
     3     3     4   ar
     4     4     5   ar
     5     5     6   ar
     6     6     7   ar
     7     6     8    1
     8     8     9    2
     9     9    18    1
    10    18    19    1
    11    19    20    1
    12    20    21    1
    13    21    22    1
    14    22    23    1
    15     9    10    1
    16    10    11   ar
    17    11    12   ar
    18    12    13   ar
    19    13    14   ar
    20    14    15   ar
    21    15    16    1
    22     7     2   ar
    23    23    18    1
    24    15    10   ar
    25    16     5    1
    26    21    24    1
    27    16    17    1
@<TRIPOS>MOLECULE
*****
 24 27 0 0 0
SMALL
GASTEIGER

@<TRIPOS>ATOM
      1 CL        139.9181  143.0081  170.8620 Cl      1  UNL1       -0.0821
      2 C         139.8791  142.1163  169.6565 C.ar    1  UNL1        0.0615
      3 C         139.3154  140.7307  169.7666 C.ar    1  UNL1        0.0129
      4 C         139.2764  139.8389  168.5611 C.ar    1  UNL1        0.0192
      5 C         139.8011  140.3327  167.2456 C.ar    1  UNL1        0.0920
      6 C         140.3649  141.7184  167.1355 C.ar    1  UNL1        0.2072
      7 C         140.4039  142.6102  168.3409 C.ar    1  UNL1        0.0593
      8 N         140.9357  142.4028  165.9288 N.2     1  UNL1       -0.0388
      9 C         141.0837  141.8704  164.5343 C.2     1  UNL1        0.3251
     10 C         140.6974  140.5223  164.0019 C.ar    1  UNL1        0.0956
     11 C         141.0193  140.3967  162.5423 C.ar    1  UNL1        0.0086
     12 C         140.7114  139.1225  161.8133 C.ar    1  UNL1        0.0003
     13 C         140.0818  137.9737  162.5440 C.ar    1  UNL1        0.0013
     14 C         139.7600  138.0992  164.0037 C.ar    1  UNL1        0.0149
     15 C         140.0678  139.3735  164.7326 C.ar    1  UNL1        0.0556
     16 N         139.6689  139.2892  166.1762 N.pl3   1  UNL1       -0.3094
     17 H         139.2672  138.4361  166.4592 H       1  UNL1        0.1523
     18 N         141.6993  142.8105  163.5408 N.pl3   1  UNL1       -0.1877
     19 C         143.1902  142.8654  163.3842 C.3     1  UNL1        0.2195
     20 C         143.8058  143.8055  162.3906 C.3     1  UNL1        0.1202
     21 N         142.9306  144.6907  161.5536 N.3     1  UNL1       -0.2906
     22 C         141.4399  144.6358  161.7102 C.3     1  UNL1        0.1202
     23 C         140.8242  143.6957  162.7037 C.3     1  UNL1        0.2195
     24 H         143.1327  144.4679  160.5790 H       1  UNL1        0.1235
@<TRIPOS>BOND
     1     1     2    1
     2     2     3   ar
     3     3     4   ar
     4     4     5   ar
     5     5     6   ar
     6     6     7   ar
     7     6     8    1
     8     8     9    2
     9     9    18    1
    10    18    19    1
    11    19    20    1
    12    20    21    1
    13    21    22    1
    14    22    23    1
    15     9    10    1
    16    10    11   ar
    17    11    12   ar
    18    12    13   ar
    19    13    14   ar
    20    14    15   ar
    21    15    16    1
    22     7     2   ar
    23    23    18    1
    24    15    10   ar
    25    16     5    1
    26    21    24    1
    27    16    17    1
@<TRIPOS>MOLECULE
*****
 24 27 0 0 0
SMALL
GASTEIGER

@<TRIPOS>ATOM
      1 CL        139.6974  146.3128  162.0095 Cl      1  UNL1       -0.0821
      2 C         140.4243  145.0842  162.4701 C.ar    1  UNL1        0.0615
      3 C         141.3630  144.3751  161.5396 C.ar    1  UNL1        0.0129
      4 C         142.0900  143.1466  162.0001 C.ar    1  UNL1        0.0192
      5 C         141.8781  142.6270  163.3912 C.ar    1  UNL1        0.0920
      6 C         140.9393  143.3361  164.3218 C.ar    1  UNL1        0.2072
      7 C         140.2124  144.5647  163.8612 C.ar    1  UNL1        0.0593
      8 N         140.5865  142.9892  165.7379 N.2     1  UNL1       -0.0388
      9 C         141.0853  141.8474  166.5730 C.2     1  UNL1        0.3251
     10 C         142.0601  140.7706  166.1986 C.ar    1  UNL1        0.0956
     11 C         142.2865  139.8171  167.3342 C.ar    1  UNL1        0.0086
     12 C         143.2296  138.6628  167.1676 C.ar    1  UNL1        0.0003
     13 C         143.9464  138.4618  165.8653 C.ar    1  UNL1        0.0013
     14 C         143.7201  139.4152  164.7297 C.ar    1  UNL1        0.0149
     15 C         142.7769  140.5696  164.8963 C.ar    1  UNL1        0.0556
     16 N         142.6959  141.3958  163.6470 N.pl3   1  UNL1       -0.3094
     17 H         143.2532  141.0895  162.8954 H       1  UNL1        0.1523
     18 N         140.5368  141.7725  167.9671 N.pl3   1  UNL1       -0.1877
     19 C         139.6610  140.6224  168.3677 C.3     1  UNL1        0.2195
     20 C         139.1124  140.5475  169.7618 C.3     1  UNL1        0.1202
     21 N         139.4396  141.6227  170.7553 N.3     1  UNL1       -0.2906
     22 C         140.3153  142.7727  170.3547 C.3     1  UNL1        0.1202
     23 C         140.8639  142.8477  168.9607 C.3     1  UNL1        0.2195
     24 H         139.8967  141.1654  171.5442 H       1  UNL1        0.1235
@<TRIPOS>BOND
     1     1     2    1
     2     2     3   ar
     3     3     4   ar
     4     4     5   ar
     5     5     6   ar
     6     6     7   ar
     7     6     8    1
     8     8     9    2
     9     9    18    1
    10    18    19    1
    11    19    20    1
    12    20    21    1
    13    21    22    1
    14    22    23    1
    15     9    10    1
    16    10    11   ar
    17    11    12   ar
    18    12    13   ar
    19    13    14   ar
    20    14    15   ar
    21    15    16    1
    22     7     2   ar
    23    23    18    1
    24    15    10   ar
    25    16     5    1
    26    21    24    1
    27    16    17    1
@<TRIPOS>MOLECULE
*****
 24 27 0 0 0
SMALL
GASTEIGER

@<TRIPOS>ATOM
      1 CL        143.0887  139.3236  170.6146 Cl      1  UNL1       -0.0821
      2 C         142.1309  139.5840  169.4900 C.ar    1  UNL1        0.0615
      3 C         140.7106  139.9640  169.7873 C.ar    1  UNL1        0.0129
      4 C         139.7528  140.2244  168.6627 C.ar    1  UNL1        0.0192
      5 C         140.2152  140.1049  167.2408 C.ar    1  UNL1        0.0920
      6 C         141.6356  139.7249  166.9434 C.ar    1  UNL1        0.2072
      7 C         142.5934  139.4645  168.0681 C.ar    1  UNL1        0.0593
      8 N         142.2976  139.5517  165.6086 N.2     1  UNL1       -0.0388
      9 C         141.7027  139.7155  164.2414 C.2     1  UNL1        0.3251
     10 C         140.2989  140.0932  163.8713 C.ar    1  UNL1        0.0956
     11 C         140.1199  140.1459  162.3830 C.ar    1  UNL1        0.0086
     12 C         138.7854  140.5057  161.8004 C.ar    1  UNL1        0.0003
     13 C         137.6298  140.8127  162.7062 C.ar    1  UNL1        0.0013
     14 C         137.8088  140.7600  164.1945 C.ar    1  UNL1        0.0149
     15 C         139.1434  140.4002  164.7770 C.ar    1  UNL1        0.0556
     16 N         139.1062  140.4054  166.2766 N.pl3   1  UNL1       -0.3094
     17 H         138.2391  140.6366  166.6815 H       1  UNL1        0.1523
     18 N         142.6348  139.4692  163.0923 N.pl3   1  UNL1       -0.1877
     19 C         142.7717  138.0894  162.5201 C.3     1  UNL1        0.2195
     20 C         143.7039  137.8431  161.3710 C.3     1  UNL1        0.1202
     21 N         144.4991  138.9766  160.7941 N.3     1  UNL1       -0.2906
     22 C         144.3622  140.3563  161.3662 C.3     1  UNL1        0.1202
     23 C         143.4301  140.6027  162.5153 C.3     1  UNL1        0.2195
     24 H         144.2476  139.0406  159.8076 H       1  UNL1        0.1235
@<TRIPOS>BOND
     1     1     2    1
     2     2     3   ar
     3     3     4   ar
     4     4     5   ar
     5     5     6   ar
     6     6     7   ar
     7     6     8    1
     8     8     9    2
     9     9    18    1
    10    18    19    1
    11    19    20    1
    12    20    21    1
    13    21    22    1
    14    22    23    1
    15     9    10    1
    16    10    11   ar
    17    11    12   ar
    18    12    13   ar
    19    13    14   ar
    20    14    15   ar
    21    15    16    1
    22     7     2   ar
    23    23    18    1
    24    15    10   ar
    25    16     5    1
    26    21    24    1
    27    16    17    1
@<TRIPOS>MOLECULE
*****
 24 27 0 0 0
SMALL
GASTEIGER

@<TRIPOS>ATOM
      1 CL        143.6564  142.8404  170.3409 Cl      1  UNL1       -0.0821
      2 C         142.9603  141.9322  169.3710 C.ar    1  UNL1        0.0615
      3 C         142.9753  140.4484  169.5897 C.ar    1  UNL1        0.0129
      4 C         142.2791  139.5402  168.6199 C.ar    1  UNL1        0.0192
      5 C         141.5680  140.1159  167.4312 C.ar    1  UNL1        0.0920
      6 C         141.5530  141.5998  167.2125 C.ar    1  UNL1        0.2072
      7 C         142.2492  142.5080  168.1823 C.ar    1  UNL1        0.0593
      8 N         140.9085  142.3750  166.1017 N.2     1  UNL1       -0.0388
      9 C         140.1197  141.8576  164.9355 C.2     1  UNL1        0.3251
     10 C         139.7807  140.4374  164.5918 C.ar    1  UNL1        0.0956
     11 C         138.9694  140.3570  163.3327 C.ar    1  UNL1        0.0086
     12 C         138.5241  139.0228  162.8115 C.ar    1  UNL1        0.0003
     13 C         138.8901  137.7692  163.5493 C.ar    1  UNL1        0.0013
     14 C         139.7014  137.8496  164.8083 C.ar    1  UNL1        0.0149
     15 C         140.1467  139.1838  165.3296 C.ar    1  UNL1        0.0556
     16 N         140.9421  139.0407  166.5933 N.pl3   1  UNL1       -0.3094
     17 H         141.0704  138.1193  166.9152 H       1  UNL1        0.1523
     18 N         139.6015  142.8981  163.9874 N.pl3   1  UNL1       -0.1877
     19 C         138.2065  143.4270  164.1438 C.3     1  UNL1        0.2195
     20 C         137.6882  144.4675  163.1957 C.3     1  UNL1        0.1202
     21 N         138.5649  144.9791  162.0913 N.3     1  UNL1       -0.2906
     22 C         139.9597  144.4503  161.9349 C.3     1  UNL1        0.1202
     23 C         140.4781  143.4098  162.8829 C.3     1  UNL1        0.2195
     24 H         138.6453  145.9875  162.2223 H       1  UNL1        0.1235
@<TRIPOS>BOND
     1     1     2    1
     2     2     3   ar
     3     3     4   ar
     4     4     5   ar
     5     5     6   ar
     6     6     7   ar
     7     6     8    1
     8     8     9    2
     9     9    18    1
    10    18    19    1
    11    19    20    1
    12    20    21    1
    13    21    22    1
    14    22    23    1
    15     9    10    1
    16    10    11   ar
    17    11    12   ar
    18    12    13   ar
    19    13    14   ar
    20    14    15   ar
    21    15    16    1
    22     7     2   ar
    23    23    18    1
    24    15    10   ar
    25    16     5    1
    26    21    24    1
    27    16    17    1
@<TRIPOS>MOLECULE
*****
 24 27 0 0 0
SMALL
GASTEIGER

@<TRIPOS>ATOM
      1 CL        139.8587  139.9722  170.9055 Cl      1  UNL1       -0.0821
      2 C         140.6725  139.9468  169.6457 C.ar    1  UNL1        0.0615
      3 C         142.0514  139.3566  169.6554 C.ar    1  UNL1        0.0129
      4 C         142.8652  139.3312  168.3956 C.ar    1  UNL1        0.0192
      5 C         142.3000  139.8959  167.1261 C.ar    1  UNL1        0.0920
      6 C         140.9210  140.4861  167.1164 C.ar    1  UNL1        0.2072
      7 C         140.1073  140.5116  168.3762 C.ar    1  UNL1        0.0593
      8 N         140.1734  141.0976  165.9687 N.2     1  UNL1       -0.0388
      9 C         140.6203  141.2698  164.5472 C.2     1  UNL1        0.3251
     10 C         141.9249  140.8732  163.9223 C.ar    1  UNL1        0.0956
     11 C         141.9650  141.2278  162.4654 C.ar    1  UNL1        0.0086
     12 C         143.1852  140.9155  161.6508 C.ar    1  UNL1        0.0003
     13 C         144.3653  140.2487  162.2931 C.ar    1  UNL1        0.0013
     14 C         144.3253  139.8941  163.7500 C.ar    1  UNL1        0.0149
     15 C         143.1051  140.2063  164.5646 C.ar    1  UNL1        0.0556
     16 N         143.2719  139.7714  165.9904 N.pl3   1  UNL1       -0.3094
     17 H         144.1334  139.3483  166.2099 H       1  UNL1        0.1523
     18 N         139.6316  141.9254  163.6291 N.pl3   1  UNL1       -0.1877
     19 C         138.7339  141.0849  162.7702 C.3     1  UNL1        0.2195
     20 C         137.7453  141.7405  161.8521 C.3     1  UNL1        0.1202
     21 N         137.6544  143.2366  161.7930 N.3     1  UNL1       -0.2906
     22 C         138.5520  144.0770  162.6519 C.3     1  UNL1        0.1202
     23 C         139.5406  143.4215  163.5700 C.3     1  UNL1        0.2195
     24 H         136.6958  143.4833  162.0393 H       1  UNL1        0.1235
@<TRIPOS>BOND
     1     1     2    1
     2     2     3   ar
     3     3     4   ar
     4     4     5   ar
     5     5     6   ar
     6     6     7   ar
     7     6     8    1
     8     8     9    2
     9     9    18    1
    10    18    19    1
    11    19    20    1
    12    20    21    1
    13    21    22    1
    14    22    23    1
    15     9    10    1
    16    10    11   ar
    17    11    12   ar
    18    12    13   ar
    19    13    14   ar
    20    14    15   ar
    21    15    16    1
    22     7     2   ar
    23    23    18    1
    24    15    10   ar
    25    16     5    1
    26    21    24    1
    27    16    17    1
@<TRIPOS>MOLECULE
*****
 24 27 0 0 0
SMALL
GASTEIGER

@<TRIPOS>ATOM
      1 CL        142.9863  139.8767  170.7941 Cl      1  UNL1       -0.0821
      2 C         142.0739  140.1076  169.6261 C.ar    1  UNL1        0.0615
      3 C         140.6009  139.8608  169.7649 C.ar    1  UNL1        0.0129
      4 C         139.6884  140.0917  168.5970 C.ar    1  UNL1        0.0192
      5 C         140.2490  140.5694  167.2903 C.ar    1  UNL1        0.0920
      6 C         141.7220  140.8162  167.1514 C.ar    1  UNL1        0.2072
      7 C         142.6345  140.5853  168.3194 C.ar    1  UNL1        0.0593
      8 N         142.4817  141.2899  165.9478 N.2     1  UNL1       -0.0388
      9 C         141.9557  141.6338  164.5858 C.2     1  UNL1        0.3251
     10 C         140.5404  141.5890  164.0909 C.ar    1  UNL1        0.0956
     11 C         140.4479  142.0154  162.6558 C.ar    1  UNL1        0.0086
     12 C         139.1164  142.0419  161.9656 C.ar    1  UNL1        0.0003
     13 C         137.8774  141.6420  162.7106 C.ar    1  UNL1        0.0013
     14 C         137.9699  141.2157  164.1457 C.ar    1  UNL1        0.0149
     15 C         139.3014  141.1891  164.8358 C.ar    1  UNL1        0.0556
     16 N         139.1718  140.7354  166.2597 N.pl3   1  UNL1       -0.3094
     17 H         138.2589  140.5177  166.5572 H       1  UNL1        0.1523
     18 N         142.9807  142.0818  163.5865 N.pl3   1  UNL1       -0.1877
     19 C         143.3221  143.5373  163.4634 C.3     1  UNL1        0.2195
     20 C         144.3471  143.9854  162.4640 C.3     1  UNL1        0.1202
     21 N         145.0307  142.9779  161.5878 N.3     1  UNL1       -0.2906
     22 C         144.6894  141.5226  161.7109 C.3     1  UNL1        0.1202
     23 C         143.6644  141.0744  162.7102 C.3     1  UNL1        0.2195
     24 H         146.0312  143.0619  161.7677 H       1  UNL1        0.1235
@<TRIPOS>BOND
     1     1     2    1
     2     2     3   ar
     3     3     4   ar
     4     4     5   ar
     5     5     6   ar
     6     6     7   ar
     7     6     8    1
     8     8     9    2
     9     9    18    1
    10    18    19    1
    11    19    20    1
    12    20    21    1
    13    21    22    1
    14    22    23    1
    15     9    10    1
    16    10    11   ar
    17    11    12   ar
    18    12    13   ar
    19    13    14   ar
    20    14    15   ar
    21    15    16    1
    22     7     2   ar
    23    23    18    1
    24    15    10   ar
    25    16     5    1
    26    21    24    1
    27    16    17    1
@<TRIPOS>MOLECULE
*****
 24 27 0 0 0
SMALL
GASTEIGER

@<TRIPOS>ATOM
      1 CL        143.4629  143.0459  170.4877 Cl      1  UNL1       -0.0821
      2 C         143.0911  142.0238  169.4548 C.ar    1  UNL1        0.0615
      3 C         142.7644  140.6205  169.8719 C.ar    1  UNL1        0.0129
      4 C         142.3925  139.5984  168.8389 C.ar    1  UNL1        0.0192
      5 C         142.3473  139.9795  167.3889 C.ar    1  UNL1        0.0920
      6 C         142.6740  141.3828  166.9717 C.ar    1  UNL1        0.2072
      7 C         143.0459  142.4050  168.0047 C.ar    1  UNL1        0.0593
      8 N         142.6895  141.9685  165.5909 N.2     1  UNL1       -0.0388
      9 C         142.3821  141.2954  164.2861 C.2     1  UNL1        0.3251
     10 C         141.9833  139.8705  164.0399 C.ar    1  UNL1        0.0956
     11 C         141.7676  139.6064  162.5792 C.ar    1  UNL1        0.0086
     12 C         141.3621  138.2385  162.1163 C.ar    1  UNL1        0.0003
     13 C         141.1722  137.1347  163.1141 C.ar    1  UNL1        0.0013
     14 C         141.3878  137.3988  164.5748 C.ar    1  UNL1        0.0149
     15 C         141.7934  138.7667  165.0377 C.ar    1  UNL1        0.0556
     16 N         141.9554  138.8153  166.5281 N.pl3   1  UNL1       -0.3094
     17 H         141.7816  137.9714  167.0044 H       1  UNL1        0.1523
     18 N         142.4874  142.1618  163.0662 N.pl3   1  UNL1       -0.1877
     19 C         143.7744  142.2223  162.2980 C.3     1  UNL1        0.2195
     20 C         143.8797  143.0887  161.0781 C.3     1  UNL1        0.1202
     21 N         142.6980  143.8947  160.6263 N.3     1  UNL1       -0.2906
     22 C         141.4111  143.8342  161.3943 C.3     1  UNL1        0.1202
     23 C         141.3057  142.9678  162.6143 C.3     1  UNL1        0.2195
     24 H         142.4864  143.5983  159.6735 H       1  UNL1        0.1235
@<TRIPOS>BOND
     1     1     2    1
     2     2     3   ar
     3     3     4   ar
     4     4     5   ar
     5     5     6   ar
     6     6     7   ar
     7     6     8    1
     8     8     9    2
     9     9    18    1
    10    18    19    1
    11    19    20    1
    12    20    21    1
    13    21    22    1
    14    22    23    1
    15     9    10    1
    16    10    11   ar
    17    11    12   ar
    18    12    13   ar
    19    13    14   ar
    20    14    15   ar
    21    15    16    1
    22     7     2   ar
    23    23    18    1
    24    15    10   ar
    25    16     5    1
    26    21    24    1
    27    16    17    1
