@<TRIPOS>MOLECULE
*****
 24 26 0 0 0
SMALL
GASTEIGER

@<TRIPOS>ATOM
      1 C         138.4420  138.9839  165.9194 C.ar    1  UNL1       -0.0059
      2 C         138.5238  140.2473  165.1150 C.ar    1  UNL1        0.0002
      3 C         138.9929  140.2007  163.6910 C.ar    1  UNL1        0.0366
      4 C         139.3802  138.8907  163.0714 C.ar    1  UNL1        0.1390
      5 C         139.2984  137.6273  163.8758 C.ar    1  UNL1        0.0366
      6 C         138.8293  137.6739  165.2998 C.ar    1  UNL1        0.0002
      7 C         137.9730  139.0304  167.3434 C.3     1  UNL1        0.0992
      8 C         140.0873  140.4826  169.8997 C.3     1  UNL1        0.0684
      9 C         138.6559  140.0392  169.8330 C.3     1  UNL1        0.0793
     10 N         138.8487  139.6319  168.4023 N.3     1  UNL1       -0.2682
     11 C         140.2802  140.0753  168.4690 C.3     1  UNL1        0.0793
     12 O         140.4279  142.1657  171.8494 O.co2   1  UNL1       -0.5491
     13 C         140.9631  141.0841  170.9586 C.2     1  UNL1        0.0527
     14 O         142.3743  140.6040  171.1265 O.co2   1  UNL1       -0.5491
     15 O         139.8493  138.8441  161.6474 O.3     1  UNL1       -0.4706
     16 C         141.2592  138.4386  161.3350 C.3     1  UNL1        0.2320
     17 C         142.4057  139.2707  161.8283 C.ar    1  UNL1        0.0221
     18 C         142.7414  140.5642  161.1471 C.ar    1  UNL1        0.0002
     19 C         143.8878  141.3962  161.6404 C.ar    1  UNL1        0.0120
     20 C         144.6986  140.9347  162.8150 C.ar    1  UNL1        0.0682
     21 CL        145.8450  141.7668  163.3083 Cl      1  UNL1       -0.0814
     22 C         144.3629  139.6412  163.4963 C.ar    1  UNL1        0.0680
     23 CL        145.1737  139.1798  164.6709 Cl      1  UNL1       -0.0814
     24 C         143.2165  138.8092  163.0029 C.ar    1  UNL1        0.0116
@<TRIPOS>UNITY_ATOM_ATTR
12 1
charge -1
@<TRIPOS>BOND
     1    12    13   ar
     2    13    14   ar
     3    13     8    1
     4     8     9    1
     5     9    10    1
     6    10     7    1
     7     7     1    1
     8     1     2   ar
     9     2     3   ar
    10     3     4   ar
    11     4    15    1
    12    15    16    1
    13    16    17    1
    14    17    18   ar
    15    18    19   ar
    16    19    20   ar
    17    20    21    1
    18    20    22   ar
    19    22    23    1
    20    22    24   ar
    21     4     5   ar
    22     5     6   ar
    23    10    11    1
    24    11     8    1
    25     6     1   ar
    26    24    17   ar
@<TRIPOS>MOLECULE
*****
 24 26 0 0 0
SMALL
GASTEIGER

@<TRIPOS>ATOM
      1 C         143.3257  140.3594  165.8111 C.ar    1  UNL1       -0.0059
      2 C         143.3005  141.7634  166.3384 C.ar    1  UNL1        0.0002
      3 C         143.7064  142.9044  165.4533 C.ar    1  UNL1        0.0366
      4 C         144.1373  142.6413  164.0408 C.ar    1  UNL1        0.1390
      5 C         144.1625  141.2373  163.5135 C.ar    1  UNL1        0.0366
      6 C         143.7566  140.0964  164.3986 C.ar    1  UNL1        0.0002
      7 C         142.9198  139.2184  166.6963 C.3     1  UNL1        0.0992
      8 C         141.0357  139.8558  169.7224 C.3     1  UNL1        0.0684
      9 C         140.7626  139.9943  168.2540 C.3     1  UNL1        0.0793
     10 N         142.1394  139.4824  167.9497 N.3     1  UNL1       -0.2682
     11 C         142.4124  139.3439  169.4181 C.3     1  UNL1        0.0793
     12 O         140.6498  141.2488  171.8813 O.co2   1  UNL1       -0.5491
     13 C         140.2553  140.1198  170.9760 C.2     1  UNL1        0.0527
     14 O         139.0803  139.2547  171.3241 O.co2   1  UNL1       -0.5491
     15 O         144.5432  143.7823  163.1556 O.3     1  UNL1       -0.4706
     16 C         143.5698  144.8843  162.8588 C.3     1  UNL1        0.2320
     17 C         142.0983  144.5955  162.8223 C.ar    1  UNL1        0.0221
     18 C         141.4858  143.9748  161.6018 C.ar    1  UNL1        0.0002
     19 C         140.0144  143.6861  161.5653 C.ar    1  UNL1        0.0120
     20 C         139.1553  144.0180  162.7493 C.ar    1  UNL1        0.0682
     21 CL        137.6838  143.7293  162.7128 Cl      1  UNL1       -0.0814
     22 C         139.7678  144.6387  163.9698 C.ar    1  UNL1        0.0680
     23 CL        138.9088  144.9706  165.1538 Cl      1  UNL1       -0.0814
     24 C         141.2392  144.9274  164.0063 C.ar    1  UNL1        0.0116
@<TRIPOS>UNITY_ATOM_ATTR
12 1
charge -1
@<TRIPOS>BOND
     1    12    13   ar
     2    13    14   ar
     3    13     8    1
     4     8     9    1
     5     9    10    1
     6    10     7    1
     7     7     1    1
     8     1     2   ar
     9     2     3   ar
    10     3     4   ar
    11     4    15    1
    12    15    16    1
    13    16    17    1
    14    17    18   ar
    15    18    19   ar
    16    19    20   ar
    17    20    21    1
    18    20    22   ar
    19    22    23    1
    20    22    24   ar
    21     4     5   ar
    22     5     6   ar
    23    10    11    1
    24    11     8    1
    25     6     1   ar
    26    24    17   ar
@<TRIPOS>MOLECULE
*****
 24 26 0 0 0
SMALL
GASTEIGER

@<TRIPOS>ATOM
      1 C         138.4865  139.0074  165.9438 C.ar    1  UNL1       -0.0059
      2 C         138.5879  140.2690  165.1389 C.ar    1  UNL1        0.0002
      3 C         139.0750  140.2170  163.7212 C.ar    1  UNL1        0.0366
      4 C         139.4606  138.9034  163.1083 C.ar    1  UNL1        0.1390
      5 C         139.3592  137.6417  163.9132 C.ar    1  UNL1        0.0366
      6 C         138.8722  137.6937  165.3310 C.ar    1  UNL1        0.0002
      7 C         137.9995  139.0593  167.3616 C.3     1  UNL1        0.0992
      8 C         140.0886  140.5053  169.9420 C.3     1  UNL1        0.0684
      9 C         140.3121  140.0384  168.5342 C.3     1  UNL1        0.0793
     10 N         138.8648  139.6583  168.4305 N.3     1  UNL1       -0.2682
     11 C         138.6413  140.1252  169.8383 C.3     1  UNL1        0.0793
     12 O         140.4079  142.1794  171.9031 O.co2   1  UNL1       -0.5491
     13 C         140.9539  141.1043  171.0109 C.2     1  UNL1        0.0527
     14 O         142.3653  140.6282  171.1876 O.co2   1  UNL1       -0.5491
     15 O         139.9477  138.8515  161.6905 O.3     1  UNL1       -0.4706
     16 C         141.3564  138.4284  161.3964 C.3     1  UNL1        0.2320
     17 C         142.5067  139.1904  161.9848 C.ar    1  UNL1        0.0221
     18 C         143.1336  138.7302  163.2674 C.ar    1  UNL1        0.0002
     19 C         144.2839  139.4922  163.8557 C.ar    1  UNL1        0.0120
     20 C         144.8072  140.7145  163.1614 C.ar    1  UNL1        0.0682
     21 CL        145.9576  141.4766  163.7498 Cl      1  UNL1       -0.0814
     22 C         144.1803  141.1748  161.8788 C.ar    1  UNL1        0.0680
     23 CL        144.7037  142.3971  161.1845 Cl      1  UNL1       -0.0814
     24 C         143.0301  140.4127  161.2905 C.ar    1  UNL1        0.0116
@<TRIPOS>UNITY_ATOM_ATTR
12 1
charge -1
@<TRIPOS>BOND
     1    12    13   ar
     2    13    14   ar
     3    13     8    1
     4     8     9    1
     5     9    10    1
     6    10     7    1
     7     7     1    1
     8     1     2   ar
     9     2     3   ar
    10     3     4   ar
    11     4    15    1
    12    15    16    1
    13    16    17    1
    14    17    18   ar
    15    18    19   ar
    16    19    20   ar
    17    20    21    1
    18    20    22   ar
    19    22    23    1
    20    22    24   ar
    21     4     5   ar
    22     5     6   ar
    23    10    11    1
    24    11     8    1
    25     6     1   ar
    26    24    17   ar
@<TRIPOS>MOLECULE
*****
 24 26 0 0 0
SMALL
GASTEIGER

@<TRIPOS>ATOM
      1 C         140.5100  139.2749  165.7945 C.ar    1  UNL1       -0.0059
      2 C         141.9217  139.0045  166.2233 C.ar    1  UNL1        0.0002
      3 C         142.9979  138.8295  165.1932 C.ar    1  UNL1        0.0366
      4 C         142.6623  138.9248  163.7343 C.ar    1  UNL1        0.1390
      5 C         141.2506  139.1952  163.3055 C.ar    1  UNL1        0.0366
      6 C         140.1744  139.3702  164.3356 C.ar    1  UNL1        0.0002
      7 C         139.4337  139.4499  166.8246 C.3     1  UNL1        0.0992
      8 C         139.9124  141.7644  169.5682 C.3     1  UNL1        0.0684
      9 C         139.2885  140.4083  169.4212 C.3     1  UNL1        0.0793
     10 N         139.6320  140.4086  167.9610 N.3     1  UNL1       -0.2682
     11 C         140.2559  141.7647  168.1081 C.3     1  UNL1        0.0793
     12 O         140.5177  142.2120  172.0549 O.co2   1  UNL1       -0.5491
     13 C         140.1108  142.7232  170.7047 C.2     1  UNL1        0.0527
     14 O         139.9022  144.1931  170.4909 O.co2   1  UNL1       -0.5491
     15 O         143.7386  138.7498  162.7042 O.3     1  UNL1       -0.4706
     16 C         144.5440  139.9319  162.2527 C.3     1  UNL1        0.2320
     17 C         144.1450  141.3157  162.6722 C.ar    1  UNL1        0.0221
     18 C         143.2030  142.1149  161.8215 C.ar    1  UNL1        0.0002
     19 C         142.8040  143.4987  162.2410 C.ar    1  UNL1        0.0120
     20 C         143.3471  144.0832  163.5112 C.ar    1  UNL1        0.0682
     21 CL        142.9480  145.4670  163.9307 Cl      1  UNL1       -0.0814
     22 C         144.2891  143.2840  164.3619 C.ar    1  UNL1        0.0680
     23 CL        144.8322  143.8685  165.6321 Cl      1  UNL1       -0.0814
     24 C         144.6881  141.9002  163.9424 C.ar    1  UNL1        0.0116
@<TRIPOS>UNITY_ATOM_ATTR
12 1
charge -1
@<TRIPOS>BOND
     1    12    13   ar
     2    13    14   ar
     3    13     8    1
     4     8     9    1
     5     9    10    1
     6    10     7    1
     7     7     1    1
     8     1     2   ar
     9     2     3   ar
    10     3     4   ar
    11     4    15    1
    12    15    16    1
    13    16    17    1
    14    17    18   ar
    15    18    19   ar
    16    19    20   ar
    17    20    21    1
    18    20    22   ar
    19    22    23    1
    20    22    24   ar
    21     4     5   ar
    22     5     6   ar
    23    10    11    1
    24    11     8    1
    25     6     1   ar
    26    24    17   ar
@<TRIPOS>MOLECULE
*****
 24 26 0 0 0
SMALL
GASTEIGER

@<TRIPOS>ATOM
      1 C         138.6074  141.5222  164.8667 C.ar    1  UNL1       -0.0059
      2 C         138.1070  141.4405  163.4550 C.ar    1  UNL1        0.0002
      3 C         137.9915  142.6859  162.6270 C.ar    1  UNL1        0.0366
      4 C         138.3763  144.0130  163.2108 C.ar    1  UNL1        0.1390
      5 C         138.8766  144.0947  164.6225 C.ar    1  UNL1        0.0366
      6 C         138.9922  142.8493  165.4504 C.ar    1  UNL1        0.0002
      7 C         138.7229  140.2768  165.6948 C.3     1  UNL1        0.0992
      8 C         141.4058  139.9472  168.1046 C.3     1  UNL1        0.0684
      9 C         141.3161  139.9241  166.6075 C.3     1  UNL1        0.0793
     10 N         139.8342  140.1403  166.6930 N.3     1  UNL1       -0.2682
     11 C         139.9239  140.1633  168.1901 C.3     1  UNL1        0.0793
     12 O         143.2353  141.0311  169.5973 O.co2   1  UNL1       -0.5491
     13 C         142.5170  139.8106  169.1029 C.2     1  UNL1        0.0527
     14 O         142.9100  138.4535  169.6068 O.co2   1  UNL1       -0.5491
     15 O         138.2607  145.2585  162.3827 O.3     1  UNL1       -0.4706
     16 C         139.4930  145.9006  161.8178 C.3     1  UNL1        0.2320
     17 C         140.8164  145.2017  161.9189 C.ar    1  UNL1        0.0221
     18 C         141.2625  144.2783  160.8243 C.ar    1  UNL1        0.0002
     19 C         142.5859  143.5795  160.9254 C.ar    1  UNL1        0.0120
     20 C         143.4632  143.8041  162.1211 C.ar    1  UNL1        0.0682
     21 CL        144.7867  143.1052  162.2222 Cl      1  UNL1       -0.0814
     22 C         143.0172  144.7275  163.2158 C.ar    1  UNL1        0.0680
     23 CL        143.8945  144.9521  164.4116 Cl      1  UNL1       -0.0814
     24 C         141.6938  145.4263  163.1147 C.ar    1  UNL1        0.0116
@<TRIPOS>UNITY_ATOM_ATTR
12 1
charge -1
@<TRIPOS>BOND
     1    12    13   ar
     2    13    14   ar
     3    13     8    1
     4     8     9    1
     5     9    10    1
     6    10     7    1
     7     7     1    1
     8     1     2   ar
     9     2     3   ar
    10     3     4   ar
    11     4    15    1
    12    15    16    1
    13    16    17    1
    14    17    18   ar
    15    18    19   ar
    16    19    20   ar
    17    20    21    1
    18    20    22   ar
    19    22    23    1
    20    22    24   ar
    21     4     5   ar
    22     5     6   ar
    23    10    11    1
    24    11     8    1
    25     6     1   ar
    26    24    17   ar
@<TRIPOS>MOLECULE
*****
 24 26 0 0 0
SMALL
GASTEIGER

@<TRIPOS>ATOM
      1 C         141.6713  138.1643  164.6006 C.ar    1  UNL1       -0.0059
      2 C         140.2477  137.8506  164.9538 C.ar    1  UNL1        0.0002
      3 C         139.2084  137.7671  163.8755 C.ar    1  UNL1        0.0366
      4 C         139.5927  137.9974  162.4440 C.ar    1  UNL1        0.1390
      5 C         141.0163  138.3112  162.0908 C.ar    1  UNL1        0.0366
      6 C         142.0556  138.3946  163.1691 C.ar    1  UNL1        0.0002
      7 C         142.7108  138.2478  165.6790 C.3     1  UNL1        0.0992
      8 C         142.7423  141.0691  167.9490 C.3     1  UNL1        0.0684
      9 C         142.6672  139.5795  168.1093 C.3     1  UNL1        0.0793
     10 N         142.7238  139.4164  166.6192 N.3     1  UNL1       -0.2682
     11 C         142.7989  140.9059  166.4590 C.3     1  UNL1        0.0793
     12 O         141.4805  142.9645  169.2003 O.co2   1  UNL1       -0.5491
     13 C         142.7553  142.2378  168.8893 C.2     1  UNL1        0.0527
     14 O         144.0432  142.6797  169.5186 O.co2   1  UNL1       -0.5491
     15 O         138.5533  137.9140  161.3657 O.3     1  UNL1       -0.4706
     16 C         137.4809  138.9588  161.2752 C.3     1  UNL1        0.2320
     17 C         137.7982  140.3891  161.5971 C.ar    1  UNL1        0.0221
     18 C         138.4146  141.2737  160.5543 C.ar    1  UNL1        0.0002
     19 C         138.7319  142.7039  160.8762 C.ar    1  UNL1        0.0120
     20 C         138.4328  143.2496  162.2411 C.ar    1  UNL1        0.0682
     21 CL        138.7501  144.6799  162.5630 Cl      1  UNL1       -0.0814
     22 C         137.8164  142.3651  163.2839 C.ar    1  UNL1        0.0680
     23 CL        137.5173  142.9108  164.6487 Cl      1  UNL1       -0.0814
     24 C         137.4991  140.9348  162.9619 C.ar    1  UNL1        0.0116
@<TRIPOS>UNITY_ATOM_ATTR
12 1
charge -1
@<TRIPOS>BOND
     1    12    13   ar
     2    13    14   ar
     3    13     8    1
     4     8     9    1
     5     9    10    1
     6    10     7    1
     7     7     1    1
     8     1     2   ar
     9     2     3   ar
    10     3     4   ar
    11     4    15    1
    12    15    16    1
    13    16    17    1
    14    17    18   ar
    15    18    19   ar
    16    19    20   ar
    17    20    21    1
    18    20    22   ar
    19    22    23    1
    20    22    24   ar
    21     4     5   ar
    22     5     6   ar
    23    10    11    1
    24    11     8    1
    25     6     1   ar
    26    24    17   ar
@<TRIPOS>MOLECULE
*****
 24 26 0 0 0
SMALL
GASTEIGER

@<TRIPOS>ATOM
      1 C         142.7596  138.5957  165.4317 C.ar    1  UNL1       -0.0059
      2 C         141.6506  137.5936  165.3057 C.ar    1  UNL1        0.0002
      3 C         141.0704  137.2826  163.9580 C.ar    1  UNL1        0.0366
      4 C         141.5992  137.9736  162.7361 C.ar    1  UNL1        0.1390
      5 C         142.7082  138.9756  162.8621 C.ar    1  UNL1        0.0366
      6 C         143.2884  139.2867  164.2098 C.ar    1  UNL1        0.0002
      7 C         143.3399  138.9067  166.7795 C.3     1  UNL1        0.0992
      8 C         141.1618  139.8478  169.5152 C.3     1  UNL1        0.0684
      9 C         142.4565  139.0991  169.3995 C.3     1  UNL1        0.0793
     10 N         142.4377  139.2965  167.9127 N.3     1  UNL1       -0.2682
     11 C         141.1431  140.0453  168.0284 C.3     1  UNL1        0.0793
     12 O         140.7788  141.1058  171.7560 O.co2   1  UNL1       -0.5491
     13 C         140.2596  140.2377  170.6484 C.2     1  UNL1        0.0527
     14 O         138.8381  139.7594  170.6739 O.co2   1  UNL1       -0.5491
     15 O         141.0189  137.6625  161.3883 O.3     1  UNL1       -0.4706
     16 C         139.7250  138.2924  160.9653 C.3     1  UNL1        0.2320
     17 C         139.2392  139.5378  161.6460 C.ar    1  UNL1        0.0221
     18 C         138.1962  139.4471  162.7202 C.ar    1  UNL1        0.0002
     19 C         137.7105  140.6924  163.4008 C.ar    1  UNL1        0.0120
     20 C         138.2678  142.0283  163.0073 C.ar    1  UNL1        0.0682
     21 CL        137.7820  143.2736  163.6880 Cl      1  UNL1       -0.0814
     22 C         139.3108  142.1189  161.9331 C.ar    1  UNL1        0.0680
     23 CL        139.8680  143.4548  161.5396 Cl      1  UNL1       -0.0814
     24 C         139.7965  140.8736  161.2525 C.ar    1  UNL1        0.0116
@<TRIPOS>UNITY_ATOM_ATTR
12 1
charge -1
@<TRIPOS>BOND
     1    12    13   ar
     2    13    14   ar
     3    13     8    1
     4     8     9    1
     5     9    10    1
     6    10     7    1
     7     7     1    1
     8     1     2   ar
     9     2     3   ar
    10     3     4   ar
    11     4    15    1
    12    15    16    1
    13    16    17    1
    14    17    18   ar
    15    18    19   ar
    16    19    20   ar
    17    20    21    1
    18    20    22   ar
    19    22    23    1
    20    22    24   ar
    21     4     5   ar
    22     5     6   ar
    23    10    11    1
    24    11     8    1
    25     6     1   ar
    26    24    17   ar
@<TRIPOS>MOLECULE
*****
 24 26 0 0 0
SMALL
GASTEIGER

@<TRIPOS>ATOM
      1 C         141.1298  139.2465  165.7184 C.ar    1  UNL1       -0.0059
      2 C         141.6678  139.1412  164.3222 C.ar    1  UNL1        0.0002
      3 C         140.7521  138.7785  163.1909 C.ar    1  UNL1        0.0366
      4 C         139.2983  138.5210  163.4559 C.ar    1  UNL1        0.1390
      5 C         138.7602  138.6263  164.8520 C.ar    1  UNL1        0.0366
      6 C         139.6760  138.9891  165.9833 C.ar    1  UNL1        0.0002
      7 C         142.0455  139.6093  166.8497 C.3     1  UNL1        0.0992
      8 C         140.8758  141.7809  169.5010 C.3     1  UNL1        0.0684
      9 C         140.7663  140.3144  169.2052 C.3     1  UNL1        0.0793
     10 N         141.5610  140.5088  167.9479 N.3     1  UNL1       -0.2682
     11 C         141.6704  141.9752  168.2437 C.3     1  UNL1        0.0793
     12 O         140.3701  142.1896  172.0165 O.co2   1  UNL1       -0.5491
     13 C         140.3912  142.6805  170.5993 C.2     1  UNL1        0.0527
     14 O         139.9278  144.0709  170.2802 O.co2   1  UNL1       -0.5491
     15 O         138.3825  138.1583  162.3245 O.3     1  UNL1       -0.4706
     16 C         137.6199  139.2301  161.6037 C.3     1  UNL1        0.2320
     17 C         137.9157  140.6748  161.8782 C.ar    1  UNL1        0.0221
     18 C         137.2976  141.3548  163.0638 C.ar    1  UNL1        0.0002
     19 C         137.5935  142.7995  163.3383 C.ar    1  UNL1        0.0120
     20 C         138.5073  143.5642  162.4272 C.ar    1  UNL1        0.0682
     21 CL        138.8031  145.0089  162.7018 Cl      1  UNL1       -0.0814
     22 C         139.1254  142.8842  161.2417 C.ar    1  UNL1        0.0680
     23 CL        140.0393  143.6489  160.3306 Cl      1  UNL1       -0.0814
     24 C         138.8296  141.4395  160.9672 C.ar    1  UNL1        0.0116
@<TRIPOS>UNITY_ATOM_ATTR
12 1
charge -1
@<TRIPOS>BOND
     1    12    13   ar
     2    13    14   ar
     3    13     8    1
     4     8     9    1
     5     9    10    1
     6    10     7    1
     7     7     1    1
     8     1     2   ar
     9     2     3   ar
    10     3     4   ar
    11     4    15    1
    12    15    16    1
    13    16    17    1
    14    17    18   ar
    15    18    19   ar
    16    19    20   ar
    17    20    21    1
    18    20    22   ar
    19    22    23    1
    20    22    24   ar
    21     4     5   ar
    22     5     6   ar
    23    10    11    1
    24    11     8    1
    25     6     1   ar
    26    24    17   ar
@<TRIPOS>MOLECULE
*****
 24 26 0 0 0
SMALL
GASTEIGER

@<TRIPOS>ATOM
      1 C         140.1248  143.1691  164.6821 C.ar    1  UNL1       -0.0059
      2 C         138.8422  142.7005  164.0615 C.ar    1  UNL1        0.0002
      3 C         138.1673  141.4641  164.5771 C.ar    1  UNL1        0.0366
      4 C         138.7751  140.6963  165.7134 C.ar    1  UNL1        0.1390
      5 C         140.0577  141.1650  166.3341 C.ar    1  UNL1        0.0366
      6 C         140.7326  142.4013  165.8184 C.ar    1  UNL1        0.0002
      7 C         140.7997  144.4055  164.1665 C.3     1  UNL1        0.0992
      8 C         140.9882  145.0126  160.6015 C.3     1  UNL1        0.0684
      9 C         141.6384  144.0487  161.5491 C.3     1  UNL1        0.0793
     10 N         140.8777  144.6570  162.6898 N.3     1  UNL1       -0.2682
     11 C         140.2275  145.6209  161.7422 C.3     1  UNL1        0.0793
     12 O         139.9301  144.8578  158.2336 O.co2   1  UNL1       -0.5491
     13 C         141.0662  145.2641  159.1247 C.2     1  UNL1        0.0527
     14 O         142.2804  145.9220  158.5391 O.co2   1  UNL1       -0.5491
     15 O         138.1002  139.4599  166.2290 O.3     1  UNL1       -0.4706
     16 C         138.4852  138.1146  165.6888 C.3     1  UNL1        0.2320
     17 C         139.4241  138.0151  164.5231 C.ar    1  UNL1        0.0221
     18 C         140.8926  137.8188  164.7575 C.ar    1  UNL1        0.0002
     19 C         141.8313  137.7193  163.5919 C.ar    1  UNL1        0.0120
     20 C         141.3016  137.8161  162.1919 C.ar    1  UNL1        0.0682
     21 CL        142.2405  137.7166  161.0262 Cl      1  UNL1       -0.0814
     22 C         139.8332  138.0124  161.9575 C.ar    1  UNL1        0.0680
     23 CL        139.3034  138.1092  160.5575 Cl      1  UNL1       -0.0814
     24 C         138.8944  138.1119  163.1231 C.ar    1  UNL1        0.0116
@<TRIPOS>UNITY_ATOM_ATTR
12 1
charge -1
@<TRIPOS>BOND
     1    12    13   ar
     2    13    14   ar
     3    13     8    1
     4     8     9    1
     5     9    10    1
     6    10     7    1
     7     7     1    1
     8     1     2   ar
     9     2     3   ar
    10     3     4   ar
    11     4    15    1
    12    15    16    1
    13    16    17    1
    14    17    18   ar
    15    18    19   ar
    16    19    20   ar
    17    20    21    1
    18    20    22   ar
    19    22    23    1
    20    22    24   ar
    21     4     5   ar
    22     5     6   ar
    23    10    11    1
    24    11     8    1
    25     6     1   ar
    26    24    17   ar
