@<TRIPOS>MOLECULE
*****
 36 41 0 0 0
SMALL
GASTEIGER

@<TRIPOS>ATOM
      1 C         141.0752  139.3522  162.3452 C.ar    1  UNL1       -0.0077
      2 C         142.1093  138.8236  161.3959 C.ar    1  UNL1        0.0159
      3 C         141.7169  138.4297  160.0027 C.ar    1  UNL1        0.0854
      4 N         142.7509  137.9011  159.0534 N.ar    1  UNL1       -0.2136
      5 C         142.3585  137.5072  157.6603 C.ar    1  UNL1        0.2208
      6 N         140.9320  137.6419  157.2165 N.ar    1  UNL1       -0.2120
      7 C         139.8979  138.1705  158.1658 C.ar    1  UNL1        0.1033
      8 C         140.2904  138.5644  159.5589 C.ar    1  UNL1        0.0378
      9 C         139.2563  139.0930  160.5083 C.ar    1  UNL1        0.0141
     10 C         139.6487  139.4869  161.9014 C.ar    1  UNL1        0.0539
     11 CL        138.6147  140.0155  162.8509 Cl      1  UNL1       -0.0826
     12 F         141.0855  137.3034  164.5366 F       1  UNL1       -0.2354
     13 C         141.4728  138.7217  164.8341 C.3     1  UNL1        0.1808
     14 C         141.8652  139.1155  166.2273 C.3     1  UNL1        0.1081
     15 N         142.2524  140.5338  166.5247 N.3     1  UNL1       -0.2693
     16 C         142.2473  141.5582  165.4290 C.3     1  UNL1        0.0726
     17 C         141.8549  141.1644  164.0359 C.3     1  UNL1        0.0245
     18 C         141.4677  139.7461  163.7384 C.3     1  UNL1        0.0586
     19 C         142.6448  140.9277  167.9179 C.3     1  UNL1        0.0899
     20 C         143.1716  142.2672  168.3401 C.3     1  UNL1        0.0506
     21 C         143.4317  142.2187  169.8165 C.3     1  UNL1        0.1437
     22 O         143.0657  140.8491  170.3069 O.3     1  UNL1       -0.3523
     23 C         142.5794  140.0513  169.1334 C.3     1  UNL1        0.1580
     24 N         143.3926  136.9786  156.7109 N.pl3   1  UNL1       -0.2794
     25 H         144.1106  137.5689  156.3865 H       1  UNL1        0.1552
     26 C         143.3326  135.5506  156.2557 C.ar    1  UNL1        0.1001
     27 C         143.0801  135.0820  154.8534 C.ar    1  UNL1        0.1372
     28 N         143.1061  133.5822  154.8540 N.ar    1  UNL1       -0.1654
     29 N         143.3747  133.1239  156.2567 N.ar    1  UNL1       -0.2353
     30 C         143.5147  134.3404  157.1231 C.ar    1  UNL1        0.1499
     31 CL        143.7886  134.3457  158.5978 Cl      1  UNL1       -0.0603
     32 C         143.4840  131.6992  156.7131 C.3     1  UNL1        0.1725
     33 C         142.9952  130.2815  156.6744 C.3     1  UNL1        0.0986
     34 C         144.1622  130.6491  157.5422 C.3     1  UNL1        0.2863
     35 F         144.4725  129.3098  158.1423 F       1  UNL1       -0.2022
     36 F         145.2215  131.4818  158.2016 F       1  UNL1       -0.2022
@<TRIPOS>BOND
     1    12    13    1
     2    13    14    1
     3    14    15    1
     4    15    19    1
     5    19    20    1
     6    20    21    1
     7    21    22    1
     8    22    23    1
     9    15    16    1
    10    16    17    1
    11    17    18    1
    12    18     1    1
    13     1     2   ar
    14     2     3   ar
    15     3     4   ar
    16     4     5   ar
    17     5    24    1
    18    24    26    1
    19    26    27   ar
    20    27    28   ar
    21    28    29   ar
    22    29    32    1
    23    32    33    1
    24    33    34    1
    25    34    35    1
    26    34    36    1
    27    29    30   ar
    28    30    31    1
    29     5     6   ar
    30     6     7   ar
    31     7     8   ar
    32     8     9   ar
    33     9    10   ar
    34    10    11    1
    35    18    13    1
    36    10     1   ar
    37    23    19    1
    38     8     3   ar
    39    30    26   ar
    40    34    32    1
    41    24    25    1
@<TRIPOS>MOLECULE
*****
 36 41 0 0 0
SMALL
GASTEIGER

@<TRIPOS>ATOM
      1 C         141.7886  139.6361  163.1179 C.ar    1  UNL1       -0.0077
      2 C         142.1998  140.5830  162.0297 C.ar    1  UNL1        0.0159
      3 C         142.5703  140.0542  160.6757 C.ar    1  UNL1        0.0854
      4 N         142.9816  141.0011  159.5875 N.ar    1  UNL1       -0.2136
      5 C         143.3519  140.4723  158.2336 C.ar    1  UNL1        0.2208
      6 N         143.3111  138.9966  157.9679 N.ar    1  UNL1       -0.2120
      7 C         142.8998  138.0497  159.0561 C.ar    1  UNL1        0.1033
      8 C         142.5294  138.5785  160.4100 C.ar    1  UNL1        0.0378
      9 C         142.1181  137.6316  161.4983 C.ar    1  UNL1        0.0141
     10 C         141.7477  138.1604  162.8522 C.ar    1  UNL1        0.0539
     11 CL        141.3364  137.2135  163.9405 Cl      1  UNL1       -0.0826
     12 F         143.8836  139.9033  165.2485 F       1  UNL1       -0.2354
     13 C         142.4657  140.2985  165.5372 C.3     1  UNL1        0.1808
     14 C         142.0953  140.8273  166.8911 C.3     1  UNL1        0.1081
     15 N         140.6774  141.2225  167.1798 N.3     1  UNL1       -0.2693
     16 C         139.6299  141.0889  166.1145 C.3     1  UNL1        0.0726
     17 C         140.0003  140.5601  164.7605 C.3     1  UNL1        0.0245
     18 C         141.4181  140.1649  164.4719 C.3     1  UNL1        0.0586
     19 C         140.3070  141.7513  168.5338 C.3     1  UNL1        0.0899
     20 C         140.5472  143.1457  169.0317 C.3     1  UNL1        0.0506
     21 C         140.0200  143.2348  170.4331 C.3     1  UNL1        0.1437
     22 O         139.4540  141.8953  170.8014 O.3     1  UNL1       -0.3523
     23 C         139.6314  140.9785  169.6275 C.3     1  UNL1        0.1580
     24 N         143.7633  141.4192  157.1453 N.pl3   1  UNL1       -0.2794
     25 H         143.0923  141.7626  156.5120 H       1  UNL1        0.1552
     26 C         145.1969  141.8428  157.0220 C.ar    1  UNL1        0.1001
     27 C         145.9369  142.7371  157.9721 C.ar    1  UNL1        0.1372
     28 N         147.3396  142.8935  157.4643 N.ar    1  UNL1       -0.1654
     29 N         147.4666  142.0959  156.2003 N.ar    1  UNL1       -0.2353
     30 C         146.1423  141.4465  155.9270 C.ar    1  UNL1        0.1499
     31 CL        145.8201  140.5571  154.7629 Cl      1  UNL1       -0.0603
     32 C         148.7010  141.9698  155.3575 C.3     1  UNL1        0.1725
     33 C         150.0908  141.4409  155.1602 C.3     1  UNL1        0.0986
     34 C         149.4494  142.2802  154.0952 C.3     1  UNL1        0.2863
     35 F         150.5538  142.3016  153.0803 F       1  UNL1       -0.2022
     36 F         148.4246  143.1120  153.3826 F       1  UNL1       -0.2022
@<TRIPOS>BOND
     1    12    13    1
     2    13    14    1
     3    14    15    1
     4    15    19    1
     5    19    20    1
     6    20    21    1
     7    21    22    1
     8    22    23    1
     9    15    16    1
    10    16    17    1
    11    17    18    1
    12    18     1    1
    13     1     2   ar
    14     2     3   ar
    15     3     4   ar
    16     4     5   ar
    17     5    24    1
    18    24    26    1
    19    26    27   ar
    20    27    28   ar
    21    28    29   ar
    22    29    32    1
    23    32    33    1
    24    33    34    1
    25    34    35    1
    26    34    36    1
    27    29    30   ar
    28    30    31    1
    29     5     6   ar
    30     6     7   ar
    31     7     8   ar
    32     8     9   ar
    33     9    10   ar
    34    10    11    1
    35    18    13    1
    36    10     1   ar
    37    23    19    1
    38     8     3   ar
    39    30    26   ar
    40    34    32    1
    41    24    25    1
@<TRIPOS>MOLECULE
*****
 36 41 0 0 0
SMALL
GASTEIGER

@<TRIPOS>ATOM
      1 C         139.8112  139.8298  162.6924 C.ar    1  UNL1       -0.0077
      2 C         141.0172  139.2713  161.9969 C.ar    1  UNL1        0.0159
      3 C         140.9492  138.9254  160.5389 C.ar    1  UNL1        0.0854
      4 N         142.1552  138.3670  159.8435 N.ar    1  UNL1       -0.2136
      5 C         142.0871  138.0211  158.3855 C.ar    1  UNL1        0.2208
      6 N         140.8129  138.2336  157.6230 N.ar    1  UNL1       -0.2120
      7 C         139.6069  138.7920  158.3184 C.ar    1  UNL1        0.1033
      8 C         139.6751  139.1379  159.7764 C.ar    1  UNL1        0.0378
      9 C         138.4690  139.6964  160.4719 C.ar    1  UNL1        0.0141
     10 C         138.5371  140.0423  161.9298 C.ar    1  UNL1        0.0539
     11 CL        137.3311  140.6008  162.6253 Cl      1  UNL1       -0.0826
     12 F         138.8479  137.8668  164.7463 F       1  UNL1       -0.2354
     13 C         139.3976  139.1942  165.1773 C.3     1  UNL1        0.1808
     14 C         139.4657  139.5401  166.6353 C.3     1  UNL1        0.1081
     15 N         140.0154  140.8674  167.0663 N.3     1  UNL1       -0.2693
     16 C         140.4971  141.8489  166.0394 C.3     1  UNL1        0.0726
     17 C         140.4291  141.5031  164.5814 C.3     1  UNL1        0.0245
     18 C         139.8793  140.1757  164.1504 C.3     1  UNL1        0.0586
     19 C         140.0835  141.2134  168.5243 C.3     1  UNL1        0.0899
     20 C         140.3904  142.5657  169.0962 C.3     1  UNL1        0.0506
     21 C         140.3532  142.4559  170.5917 C.3     1  UNL1        0.1437
     22 O         140.0233  141.0356  170.9441 O.3     1  UNL1       -0.3523
     23 C         139.8566  140.2678  169.6664 C.3     1  UNL1        0.1580
     24 N         143.2931  137.4626  157.6900 N.pl3   1  UNL1       -0.2794
     25 H         144.1936  137.7696  157.9433 H       1  UNL1        0.1552
     26 C         143.1271  136.4363  156.6087 C.ar    1  UNL1        0.1001
     27 C         142.7587  136.7116  155.1810 C.ar    1  UNL1        0.1372
     28 N         142.7043  135.4000  154.4551 N.ar    1  UNL1       -0.1654
     29 N         143.0390  134.3141  155.4343 N.ar    1  UNL1       -0.2353
     30 C         143.3004  134.9546  156.7653 C.ar    1  UNL1        0.1499
     31 CL        143.6700  134.2390  158.0307 Cl      1  UNL1       -0.0603
     32 C         143.1015  132.8456  155.1351 C.3     1  UNL1        0.1725
     33 C         142.4808  131.6114  154.5507 C.3     1  UNL1        0.0986
     34 C         143.8304  131.5363  155.2011 C.3     1  UNL1        0.2863
     35 F         144.1262  130.0770  155.0193 F       1  UNL1       -0.2022
     36 F         145.0773  131.9680  155.9146 F       1  UNL1       -0.2022
@<TRIPOS>BOND
     1    12    13    1
     2    13    14    1
     3    14    15    1
     4    15    19    1
     5    19    20    1
     6    20    21    1
     7    21    22    1
     8    22    23    1
     9    15    16    1
    10    16    17    1
    11    17    18    1
    12    18     1    1
    13     1     2   ar
    14     2     3   ar
    15     3     4   ar
    16     4     5   ar
    17     5    24    1
    18    24    26    1
    19    26    27   ar
    20    27    28   ar
    21    28    29   ar
    22    29    32    1
    23    32    33    1
    24    33    34    1
    25    34    35    1
    26    34    36    1
    27    29    30   ar
    28    30    31    1
    29     5     6   ar
    30     6     7   ar
    31     7     8   ar
    32     8     9   ar
    33     9    10   ar
    34    10    11    1
    35    18    13    1
    36    10     1   ar
    37    23    19    1
    38     8     3   ar
    39    30    26   ar
    40    34    32    1
    41    24    25    1
@<TRIPOS>MOLECULE
*****
 36 41 0 0 0
SMALL
GASTEIGER

@<TRIPOS>ATOM
      1 C         141.1554  139.6146  162.2157 C.ar    1  UNL1       -0.0077
      2 C         142.0582  138.7621  161.3742 C.ar    1  UNL1        0.0159
      3 C         141.6727  138.4261  159.9640 C.ar    1  UNL1        0.0854
      4 N         142.5755  137.5737  159.1225 N.ar    1  UNL1       -0.2136
      5 C         142.1900  137.2378  157.7124 C.ar    1  UNL1        0.2208
      6 N         140.9016  137.7543  157.1438 N.ar    1  UNL1       -0.2120
      7 C         139.9988  138.6068  157.9853 C.ar    1  UNL1        0.1033
      8 C         140.3843  138.9427  159.3954 C.ar    1  UNL1        0.0378
      9 C         139.4815  139.7952  160.2370 C.ar    1  UNL1        0.0141
     10 C         139.8670  140.1311  161.6471 C.ar    1  UNL1        0.0539
     11 CL        138.9642  140.9836  162.4887 Cl      1  UNL1       -0.0826
     12 F         140.4658  137.7327  164.4480 F       1  UNL1       -0.2354
     13 C         141.1961  139.0096  164.7421 C.3     1  UNL1        0.1808
     14 C         141.5816  139.3455  166.1522 C.3     1  UNL1        0.1081
     15 N         142.3118  140.6223  166.4462 N.3     1  UNL1       -0.2693
     16 C         142.6566  141.5632  165.3301 C.3     1  UNL1        0.0726
     17 C         142.2711  141.2273  163.9199 C.3     1  UNL1        0.0245
     18 C         141.5409  139.9505  163.6259 C.3     1  UNL1        0.0586
     19 C         142.6973  140.9582  167.8564 C.3     1  UNL1        0.0899
     20 C         143.1937  142.2879  168.3418 C.3     1  UNL1        0.0506
     21 C         143.4573  142.1750  169.8141 C.3     1  UNL1        0.1437
     22 O         143.1238  140.7755  170.2387 O.3     1  UNL1       -0.3523
     23 C         142.6541  140.0235  169.0288 C.3     1  UNL1        0.1580
     24 N         143.0928  136.3853  156.8708 N.pl3   1  UNL1       -0.2794
     25 H         143.9011  136.7750  156.4657 H       1  UNL1        0.1552
     26 C         142.7641  134.9390  156.6465 C.ar    1  UNL1        0.1001
     27 C         143.2882  133.7817  157.4440 C.ar    1  UNL1        0.1372
     28 N         142.7016  132.5236  156.8756 N.ar    1  UNL1       -0.1654
     29 N         141.8150  132.9033  155.7268 N.ar    1  UNL1       -0.2353
     30 C         141.8536  134.3961  155.5852 C.ar    1  UNL1        0.1499
     31 CL        141.1119  135.2041  154.5620 Cl      1  UNL1       -0.0603
     32 C         141.0279  131.9565  154.8701 C.3     1  UNL1        0.1725
     33 C         140.1509  130.7467  154.7384 C.3     1  UNL1        0.0986
     34 C         140.5417  131.5262  153.5179 C.3     1  UNL1        0.2863
     35 F         139.8344  130.7291  152.4622 F       1  UNL1       -0.2022
     36 F         141.1782  132.5826  152.6640 F       1  UNL1       -0.2022
@<TRIPOS>BOND
     1    12    13    1
     2    13    14    1
     3    14    15    1
     4    15    19    1
     5    19    20    1
     6    20    21    1
     7    21    22    1
     8    22    23    1
     9    15    16    1
    10    16    17    1
    11    17    18    1
    12    18     1    1
    13     1     2   ar
    14     2     3   ar
    15     3     4   ar
    16     4     5   ar
    17     5    24    1
    18    24    26    1
    19    26    27   ar
    20    27    28   ar
    21    28    29   ar
    22    29    32    1
    23    32    33    1
    24    33    34    1
    25    34    35    1
    26    34    36    1
    27    29    30   ar
    28    30    31    1
    29     5     6   ar
    30     6     7   ar
    31     7     8   ar
    32     8     9   ar
    33     9    10   ar
    34    10    11    1
    35    18    13    1
    36    10     1   ar
    37    23    19    1
    38     8     3   ar
    39    30    26   ar
    40    34    32    1
    41    24    25    1
@<TRIPOS>MOLECULE
*****
 36 41 0 0 0
SMALL
GASTEIGER

@<TRIPOS>ATOM
      1 C         142.4570  142.9185  163.1152 C.ar    1  UNL1       -0.0077
      2 C         143.1738  141.9048  162.2734 C.ar    1  UNL1        0.0159
      3 C         143.3278  142.1290  160.7982 C.ar    1  UNL1        0.0854
      4 N         144.0445  141.1153  159.9564 N.ar    1  UNL1       -0.2136
      5 C         144.1985  141.3395  158.4813 C.ar    1  UNL1        0.2208
      6 N         143.6357  142.5773  157.8480 N.ar    1  UNL1       -0.2120
      7 C         142.9190  143.5910  158.6898 C.ar    1  UNL1        0.1033
      8 C         142.7650  143.3668  160.1649 C.ar    1  UNL1        0.0378
      9 C         142.0482  144.3805  161.0068 C.ar    1  UNL1        0.0141
     10 C         141.8942  144.1563  162.4819 C.ar    1  UNL1        0.0539
     11 CL        141.1774  145.1700  163.3238 Cl      1  UNL1       -0.0826
     12 F         144.8499  143.0906  164.9164 F       1  UNL1       -0.2354
     13 C         143.4994  142.7804  165.4910 C.3     1  UNL1        0.1808
     14 C         143.3455  142.5563  166.9661 C.3     1  UNL1        0.1081
     15 N         141.9951  142.2461  167.5406 N.3     1  UNL1       -0.2693
     16 C         140.7986  142.1600  166.6400 C.3     1  UNL1        0.0726
     17 C         140.9526  142.3841  165.1649 C.3     1  UNL1        0.0245
     18 C         142.3030  142.6943  164.5904 C.3     1  UNL1        0.0586
     19 C         141.8410  142.0219  169.0158 C.3     1  UNL1        0.0899
     20 C         141.2313  140.8151  169.6653 C.3     1  UNL1        0.0506
     21 C         141.2831  141.0125  171.1514 C.3     1  UNL1        0.1437
     22 O         141.9249  142.3414  171.4203 O.3     1  UNL1       -0.3523
     23 C         142.2697  142.9652  170.1005 C.3     1  UNL1        0.1580
     24 N         144.9153  140.3258  157.6394 N.pl3   1  UNL1       -0.2794
     25 H         145.0763  139.4201  157.9899 H       1  UNL1        0.1552
     26 C         145.3868  140.6923  156.2633 C.ar    1  UNL1        0.1001
     27 C         144.8892  140.1058  154.9755 C.ar    1  UNL1        0.1372
     28 N         145.6335  140.7606  153.8498 N.ar    1  UNL1       -0.1654
     29 N         146.5912  141.7517  154.4419 N.ar    1  UNL1       -0.2353
     30 C         146.4387  141.7095  155.9335 C.ar    1  UNL1        0.1499
     31 CL        147.2037  142.5389  156.9218 Cl      1  UNL1       -0.0603
     32 C         147.5355  142.6308  153.6767 C.3     1  UNL1        0.1725
     33 C         147.7887  143.6152  152.5736 C.3     1  UNL1        0.0986
     34 C         148.9178  143.1689  153.4544 C.3     1  UNL1        0.2863
     35 F         150.0439  143.9572  152.8538 F       1  UNL1       -0.2022
     36 F         149.6560  142.4489  154.5438 F       1  UNL1       -0.2022
@<TRIPOS>BOND
     1    12    13    1
     2    13    14    1
     3    14    15    1
     4    15    19    1
     5    19    20    1
     6    20    21    1
     7    21    22    1
     8    22    23    1
     9    15    16    1
    10    16    17    1
    11    17    18    1
    12    18     1    1
    13     1     2   ar
    14     2     3   ar
    15     3     4   ar
    16     4     5   ar
    17     5    24    1
    18    24    26    1
    19    26    27   ar
    20    27    28   ar
    21    28    29   ar
    22    29    32    1
    23    32    33    1
    24    33    34    1
    25    34    35    1
    26    34    36    1
    27    29    30   ar
    28    30    31    1
    29     5     6   ar
    30     6     7   ar
    31     7     8   ar
    32     8     9   ar
    33     9    10   ar
    34    10    11    1
    35    18    13    1
    36    10     1   ar
    37    23    19    1
    38     8     3   ar
    39    30    26   ar
    40    34    32    1
    41    24    25    1
@<TRIPOS>MOLECULE
*****
 36 41 0 0 0
SMALL
GASTEIGER

@<TRIPOS>ATOM
      1 C         141.0695  143.4106  162.9560 C.ar    1  UNL1       -0.0077
      2 C         141.9113  142.9726  161.7943 C.ar    1  UNL1        0.0159
      3 C         141.8465  143.7219  160.4964 C.ar    1  UNL1        0.0854
      4 N         142.6883  143.2839  159.3348 N.ar    1  UNL1       -0.2136
      5 C         142.6235  144.0331  158.0369 C.ar    1  UNL1        0.2208
      6 N         141.7169  145.2203  157.9008 N.ar    1  UNL1       -0.2120
      7 C         140.8751  145.6584  159.0624 C.ar    1  UNL1        0.1033
      8 C         140.9399  144.9091  160.3602 C.ar    1  UNL1        0.0378
      9 C         140.0981  145.3471  161.5220 C.ar    1  UNL1        0.0141
     10 C         140.1629  144.5979  162.8198 C.ar    1  UNL1        0.0539
     11 CL        139.3211  145.0359  163.9816 Cl      1  UNL1       -0.0826
     12 F         143.3046  143.9426  164.8851 F       1  UNL1       -0.2354
     13 C         142.2518  142.9274  165.2184 C.3     1  UNL1        0.1808
     14 C         142.3166  142.1782  166.5163 C.3     1  UNL1        0.1081
     15 N         141.2639  141.1631  166.8496 N.3     1  UNL1       -0.2693
     16 C         140.1463  140.8971  165.8851 C.3     1  UNL1        0.0726
     17 C         140.0815  141.6463  164.5872 C.3     1  UNL1        0.0245
     18 C         141.1343  142.6614  164.2539 C.3     1  UNL1        0.0586
     19 C         141.3286  140.4138  168.1475 C.3     1  UNL1        0.0899
     20 C         142.5505  139.7721  168.7351 C.3     1  UNL1        0.0506
     21 C         142.1600  139.1364  170.0364 C.3     1  UNL1        0.1437
     22 O         140.6967  139.3853  170.2531 O.3     1  UNL1       -0.3523
     23 C         140.1830  140.1748  169.0857 C.3     1  UNL1        0.1580
     24 N         143.4653  143.5951  156.8752 N.pl3   1  UNL1       -0.2794
     25 H         143.7343  144.2474  156.1886 H       1  UNL1        0.1552
     26 C         143.8972  142.1633  156.7596 C.ar    1  UNL1        0.1001
     27 C         145.3077  141.6588  156.8372 C.ar    1  UNL1        0.1372
     28 N         145.2767  140.1683  156.6717 N.ar    1  UNL1       -0.1654
     29 N         143.8470  139.7515  156.4918 N.ar    1  UNL1       -0.2353
     30 C         142.9945  140.9845  156.5461 C.ar    1  UNL1        0.1499
     31 CL        141.5013  141.0306  156.4107 Cl      1  UNL1       -0.0603
     32 C         143.3561  138.3482  156.2925 C.3     1  UNL1        0.1725
     33 C         143.4671  137.0180  155.6083 C.3     1  UNL1        0.0986
     34 C         142.3948  137.2479  156.6316 C.3     1  UNL1        0.2863
     35 F         141.7251  135.9058  156.6130 F       1  UNL1       -0.2022
     36 F         141.5549  137.9438  157.6614 F       1  UNL1       -0.2022
@<TRIPOS>BOND
     1    12    13    1
     2    13    14    1
     3    14    15    1
     4    15    19    1
     5    19    20    1
     6    20    21    1
     7    21    22    1
     8    22    23    1
     9    15    16    1
    10    16    17    1
    11    17    18    1
    12    18     1    1
    13     1     2   ar
    14     2     3   ar
    15     3     4   ar
    16     4     5   ar
    17     5    24    1
    18    24    26    1
    19    26    27   ar
    20    27    28   ar
    21    28    29   ar
    22    29    32    1
    23    32    33    1
    24    33    34    1
    25    34    35    1
    26    34    36    1
    27    29    30   ar
    28    30    31    1
    29     5     6   ar
    30     6     7   ar
    31     7     8   ar
    32     8     9   ar
    33     9    10   ar
    34    10    11    1
    35    18    13    1
    36    10     1   ar
    37    23    19    1
    38     8     3   ar
    39    30    26   ar
    40    34    32    1
    41    24    25    1
@<TRIPOS>MOLECULE
*****
 36 41 0 0 0
SMALL
GASTEIGER

@<TRIPOS>ATOM
      1 C         142.9041  139.8806  158.1843 C.ar    1  UNL1       -0.0077
      2 C         143.1222  139.3160  159.5568 C.ar    1  UNL1        0.0159
      3 C         141.9593  138.7902  160.3450 C.ar    1  UNL1        0.0854
      4 N         142.1774  138.2256  161.7174 N.ar    1  UNL1       -0.2136
      5 C         141.0145  137.6999  162.5056 C.ar    1  UNL1        0.2208
      6 N         139.6335  137.7387  161.9213 N.ar    1  UNL1       -0.2120
      7 C         139.4154  138.3032  160.5488 C.ar    1  UNL1        0.1033
      8 C         140.5783  138.8290  159.7607 C.ar    1  UNL1        0.0378
      9 C         140.3602  139.3936  158.3882 C.ar    1  UNL1        0.0141
     10 C         141.5231  139.9194  157.6000 C.ar    1  UNL1        0.0539
     11 CL        141.3050  140.4840  156.2275 Cl      1  UNL1       -0.0826
     12 F         143.8963  138.3730  155.7879 F       1  UNL1       -0.2354
     13 C         144.5631  139.6526  156.1979 C.3     1  UNL1        0.1808
     14 C         145.7259  140.1784  155.4097 C.3     1  UNL1        0.1081
     15 N         146.3927  141.4579  155.8196 N.3     1  UNL1       -0.2693
     16 C         145.8966  142.2117  157.0178 C.3     1  UNL1        0.0726
     17 C         144.7337  141.6860  157.8061 C.3     1  UNL1        0.0245
     18 C         144.0670  140.4064  157.3961 C.3     1  UNL1        0.0586
     19 C         147.5556  141.9837  155.0314 C.3     1  UNL1        0.0899
     20 C         147.4753  142.8986  153.8454 C.3     1  UNL1        0.0506
     21 C         148.8730  143.1673  153.3718 C.3     1  UNL1        0.1437
     22 O         149.8171  142.4185  154.2651 O.3     1  UNL1       -0.3523
     23 C         149.0029  141.6870  155.2908 C.3     1  UNL1        0.1580
     24 N         141.2325  137.1353  163.8781 N.pl3   1  UNL1       -0.2794
     25 H         141.1353  136.1680  164.0336 H       1  UNL1        0.1552
     26 C         141.5987  138.0444  165.0136 C.ar    1  UNL1        0.1001
     27 C         142.9706  138.2222  165.5936 C.ar    1  UNL1        0.1372
     28 N         142.8771  139.2231  166.7069 N.ar    1  UNL1       -0.1654
     29 N         141.4474  139.6640  166.8150 N.ar    1  UNL1       -0.2353
     30 C         140.6574  138.9355  165.7684 C.ar    1  UNL1        0.1499
     31 CL        139.1845  139.0739  165.5203 Cl      1  UNL1       -0.0603
     32 C         140.9033  140.6586  167.7971 C.3     1  UNL1        0.1725
     33 C         140.9551  142.0144  168.4367 C.3     1  UNL1        0.0986
     34 C         139.9090  141.0257  168.8585 C.3     1  UNL1        0.2863
     35 F         139.1915  141.8336  169.8990 F       1  UNL1       -0.2022
     36 F         139.1120  139.7563  168.9190 F       1  UNL1       -0.2022
@<TRIPOS>BOND
     1    12    13    1
     2    13    14    1
     3    14    15    1
     4    15    19    1
     5    19    20    1
     6    20    21    1
     7    21    22    1
     8    22    23    1
     9    15    16    1
    10    16    17    1
    11    17    18    1
    12    18     1    1
    13     1     2   ar
    14     2     3   ar
    15     3     4   ar
    16     4     5   ar
    17     5    24    1
    18    24    26    1
    19    26    27   ar
    20    27    28   ar
    21    28    29   ar
    22    29    32    1
    23    32    33    1
    24    33    34    1
    25    34    35    1
    26    34    36    1
    27    29    30   ar
    28    30    31    1
    29     5     6   ar
    30     6     7   ar
    31     7     8   ar
    32     8     9   ar
    33     9    10   ar
    34    10    11    1
    35    18    13    1
    36    10     1   ar
    37    23    19    1
    38     8     3   ar
    39    30    26   ar
    40    34    32    1
    41    24    25    1
@<TRIPOS>MOLECULE
*****
 36 41 0 0 0
SMALL
GASTEIGER

@<TRIPOS>ATOM
      1 C         141.0435  140.7528  158.0087 C.ar    1  UNL1       -0.0077
      2 C         140.4722  140.9458  159.3821 C.ar    1  UNL1        0.0159
      3 C         140.1896  142.3289  159.8893 C.ar    1  UNL1        0.0854
      4 N         139.6183  142.5220  161.2628 N.ar    1  UNL1       -0.2136
      5 C         139.3357  143.9050  161.7699 C.ar    1  UNL1        0.2208
      6 N         139.6244  145.0951  160.9036 N.ar    1  UNL1       -0.2120
      7 C         140.1957  144.9020  159.5302 C.ar    1  UNL1        0.1033
      8 C         140.4783  143.5190  159.0231 C.ar    1  UNL1        0.0378
      9 C         141.0497  143.3259  157.6496 C.ar    1  UNL1        0.0141
     10 C         141.3322  141.9428  157.1425 C.ar    1  UNL1        0.0539
     11 CL        141.9036  141.7497  155.7690 Cl      1  UNL1       -0.0826
     12 F         143.7255  139.4976  158.4898 F       1  UNL1       -0.2354
     13 C         142.6671  138.7421  157.7421 C.3     1  UNL1        0.1808
     14 C         142.9497  137.3590  157.2349 C.3     1  UNL1        0.1081
     15 N         141.8913  136.6036  156.4872 N.3     1  UNL1       -0.2693
     16 C         140.5503  137.2311  156.2467 C.3     1  UNL1        0.0726
     17 C         140.2677  138.6142  156.7538 C.3     1  UNL1        0.0245
     18 C         141.3261  139.3697  157.5015 C.3     1  UNL1        0.0586
     19 C         142.1739  135.2204  155.9800 C.3     1  UNL1        0.0899
     20 C         141.2619  134.3914  155.1251 C.3     1  UNL1        0.0506
     21 C         141.9424  133.0822  154.8554 C.3     1  UNL1        0.1437
     22 O         143.2751  133.1020  155.5436 O.3     1  UNL1       -0.3523
     23 C         143.4181  134.4236  156.2387 C.3     1  UNL1        0.1580
     24 N         138.7644  144.0981  163.1434 N.pl3   1  UNL1       -0.2794
     25 H         138.2324  144.9011  163.3468 H       1  UNL1        0.1552
     26 C         139.0036  143.0677  164.2068 C.ar    1  UNL1        0.1001
     27 C         139.9568  143.1937  165.3581 C.ar    1  UNL1        0.1372
     28 N         139.8740  141.9342  166.1685 N.ar    1  UNL1       -0.1654
     29 N         138.8695  141.0297  165.5182 N.ar    1  UNL1       -0.2353
     30 C         138.3316  141.7303  164.3058 C.ar    1  UNL1        0.1499
     31 CL        137.3023  141.1886  163.3586 Cl      1  UNL1       -0.0603
     32 C         138.4725  139.6645  165.9962 C.3     1  UNL1        0.1725
     33 C         137.8753  138.7800  167.0502 C.3     1  UNL1        0.0986
     34 C         138.3823  138.1844  165.7703 C.3     1  UNL1        0.2863
     35 F         138.0794  136.7365  166.0189 F       1  UNL1       -0.2022
     36 F         138.9944  138.0917  164.4040 F       1  UNL1       -0.2022
@<TRIPOS>BOND
     1    12    13    1
     2    13    14    1
     3    14    15    1
     4    15    19    1
     5    19    20    1
     6    20    21    1
     7    21    22    1
     8    22    23    1
     9    15    16    1
    10    16    17    1
    11    17    18    1
    12    18     1    1
    13     1     2   ar
    14     2     3   ar
    15     3     4   ar
    16     4     5   ar
    17     5    24    1
    18    24    26    1
    19    26    27   ar
    20    27    28   ar
    21    28    29   ar
    22    29    32    1
    23    32    33    1
    24    33    34    1
    25    34    35    1
    26    34    36    1
    27    29    30   ar
    28    30    31    1
    29     5     6   ar
    30     6     7   ar
    31     7     8   ar
    32     8     9   ar
    33     9    10   ar
    34    10    11    1
    35    18    13    1
    36    10     1   ar
    37    23    19    1
    38     8     3   ar
    39    30    26   ar
    40    34    32    1
    41    24    25    1
@<TRIPOS>MOLECULE
*****
 36 41 0 0 0
SMALL
GASTEIGER

@<TRIPOS>ATOM
      1 C         139.7810  139.8522  162.5165 C.ar    1  UNL1       -0.0077
      2 C         140.9345  139.1503  161.8633 C.ar    1  UNL1        0.0159
      3 C         140.8711  138.7991  160.4063 C.ar    1  UNL1        0.0854
      4 N         142.0246  138.0972  159.7531 N.ar    1  UNL1       -0.2136
      5 C         141.9611  137.7461  158.2962 C.ar    1  UNL1        0.2208
      6 N         140.7441  138.0969  157.4925 N.ar    1  UNL1       -0.2120
      7 C         139.5907  138.7988  158.1457 C.ar    1  UNL1        0.1033
      8 C         139.6541  139.1499  159.6026 C.ar    1  UNL1        0.0378
      9 C         138.5006  139.8519  160.2559 C.ar    1  UNL1        0.0141
     10 C         138.5640  140.2030  161.7128 C.ar    1  UNL1        0.0539
     11 CL        137.4105  140.9049  162.3661 Cl      1  UNL1       -0.0826
     12 F         140.9356  142.4843  163.3762 F       1  UNL1       -0.2354
     13 C         140.4217  141.5194  164.4033 C.3     1  UNL1        0.1808
     14 C         140.4852  141.8705  165.8602 C.3     1  UNL1        0.1081
     15 N         139.9713  140.9057  166.8873 N.3     1  UNL1       -0.2693
     16 C         139.3940  139.5896  166.4575 C.3     1  UNL1        0.0726
     17 C         139.3305  139.2385  165.0006 C.3     1  UNL1        0.0245
     18 C         139.8444  140.2033  163.9735 C.3     1  UNL1        0.0586
     19 C         140.0347  141.2568  168.3443 C.3     1  UNL1        0.0899
     20 C         140.5019  142.5621  168.9171 C.3     1  UNL1        0.0506
     21 C         140.3980  142.4764  170.4110 C.3     1  UNL1        0.1437
     22 O         139.8666  141.1181  170.7615 O.3     1  UNL1       -0.3523
     23 C         139.6421  140.3644  169.4842 C.3     1  UNL1        0.1580
     24 N         143.1146  137.0441  157.6429 N.pl3   1  UNL1       -0.2794
     25 H         143.9860  137.4959  157.5657 H       1  UNL1        0.1552
     26 C         142.9405  135.6539  157.1073 C.ar    1  UNL1        0.1001
     27 C         143.2776  134.3825  157.8284 C.ar    1  UNL1        0.1372
     28 N         142.9442  133.2338  156.9232 N.ar    1  UNL1       -0.1654
     29 N         142.4011  133.7952  155.6427 N.ar    1  UNL1       -0.2353
     30 C         142.3988  135.2909  155.7564 C.ar    1  UNL1        0.1499
     31 CL        141.9361  136.2544  154.7041 Cl      1  UNL1       -0.0603
     32 C         141.9410  133.0005  154.4566 C.3     1  UNL1        0.1725
     33 C         142.0392  132.6707  152.9966 C.3     1  UNL1        0.0986
     34 C         141.0459  131.9538  153.8623 C.3     1  UNL1        0.2863
     35 F         140.4204  131.0467  152.8445 F       1  UNL1       -0.2022
     36 F         140.2699  131.5519  155.0814 F       1  UNL1       -0.2022
@<TRIPOS>BOND
     1    12    13    1
     2    13    14    1
     3    14    15    1
     4    15    19    1
     5    19    20    1
     6    20    21    1
     7    21    22    1
     8    22    23    1
     9    15    16    1
    10    16    17    1
    11    17    18    1
    12    18     1    1
    13     1     2   ar
    14     2     3   ar
    15     3     4   ar
    16     4     5   ar
    17     5    24    1
    18    24    26    1
    19    26    27   ar
    20    27    28   ar
    21    28    29   ar
    22    29    32    1
    23    32    33    1
    24    33    34    1
    25    34    35    1
    26    34    36    1
    27    29    30   ar
    28    30    31    1
    29     5     6   ar
    30     6     7   ar
    31     7     8   ar
    32     8     9   ar
    33     9    10   ar
    34    10    11    1
    35    18    13    1
    36    10     1   ar
    37    23    19    1
    38     8     3   ar
    39    30    26   ar
    40    34    32    1
    41    24    25    1
