@<TRIPOS>MOLECULE
*****
 25 27 0 0 0
SMALL
GASTEIGER

@<TRIPOS>ATOM
      1 C         140.5259  140.2112  166.6978 C.2     1  UNL1       -0.0245
      2 C         141.7467  139.4924  166.2050 C.2     1  UNL1       -0.0421
      3 C         142.9283  140.0053  166.9734 C.3     1  UNL1        0.0481
      4 C         142.4378  141.0412  167.9411 C.ar    1  UNL1       -0.0162
      5 C         143.1514  141.8850  168.9554 C.ar    1  UNL1        0.0257
      6 C         142.3802  142.8561  169.7992 C.ar    1  UNL1        0.1398
      7 F         143.0937  143.6999  170.8136 F       1  UNL1       -0.2042
      8 C         140.8953  142.9833  169.6289 C.ar    1  UNL1        0.0296
      9 C         140.1817  142.1395  168.6146 C.ar    1  UNL1        0.0017
     10 C         140.9530  141.1684  167.7708 C.ar    1  UNL1       -0.0077
     11 C         139.1240  140.0084  166.2043 C.3     1  UNL1        0.0666
     12 C         138.2129  139.0465  166.9077 C.3     1  UNL1        0.0112
     13 C         138.3136  140.0384  163.7360 C.ar    1  UNL1        0.2393
     14 N         137.8227  140.7975  162.5391 N.ar    1  UNL1       -0.2075
     15 C         137.6510  142.2858  162.6134 C.ar    1  UNL1        0.1227
     16 C         137.9704  143.0150  163.8848 C.ar    1  UNL1        0.1193
     17 N         138.4614  142.2558  165.0817 N.ar    1  UNL1       -0.2415
     18 C         138.6330  140.7675  165.0073 C.ar    1  UNL1        0.1156
     19 C         138.5840  137.8723  162.3270 C.3     1  UNL1        0.2543
     20 O         138.4852  138.5501  163.6615 O.3     1  UNL1       -0.4553
     21 C         141.7800  138.4445  165.1322 C.3     1  UNL1        0.0394
     22 C         141.9837  138.8431  163.7006 C.3     1  UNL1        0.0765
     23 N         143.3411  138.7212  163.0739 N.3     1  UNL1       -0.2700
     24 C         144.5271  139.3728  163.7211 C.3     1  UNL1        0.0897
     25 C         143.5124  137.9479  161.8002 C.3     1  UNL1        0.0897
@<TRIPOS>BOND
     1    19    20    1
     2    20    13    1
     3    13    14   ar
     4    14    15   ar
     5    15    16   ar
     6    16    17   ar
     7    17    18   ar
     8    18    11    1
     9    11    12    1
    10    11     1    1
    11     1     2    2
    12     2    21    1
    13    21    22    1
    14    22    23    1
    15    23    24    1
    16    23    25    1
    17     2     3    1
    18     3     4    1
    19     4     5   ar
    20     5     6   ar
    21     6     7    1
    22     6     8   ar
    23     8     9   ar
    24     9    10   ar
    25    18    13   ar
    26    10     1    1
    27    10     4   ar
@<TRIPOS>MOLECULE
*****
 25 27 0 0 0
SMALL
GASTEIGER

@<TRIPOS>ATOM
      1 C         140.3299  139.4905  166.2087 C.2     1  UNL1       -0.0245
      2 C         141.5775  138.7943  165.7518 C.2     1  UNL1       -0.0421
      3 C         142.7418  139.4123  166.4676 C.3     1  UNL1        0.0481
      4 C         142.2139  140.4905  167.3669 C.ar    1  UNL1       -0.0162
      5 C         142.8979  141.4344  168.3109 C.ar    1  UNL1        0.0257
      6 C         142.0912  142.4267  169.0948 C.ar    1  UNL1        0.1398
      7 F         142.7752  143.3707  170.0388 F       1  UNL1       -0.2042
      8 C         140.6006  142.4751  168.9348 C.ar    1  UNL1        0.0296
      9 C         139.9166  141.5311  167.9909 C.ar    1  UNL1        0.0017
     10 C         140.7232  140.5388  167.2070 C.ar    1  UNL1       -0.0077
     11 C         138.9341  139.1911  165.7483 C.3     1  UNL1        0.0666
     12 C         137.9382  138.6054  166.7051 C.3     1  UNL1        0.0112
     13 C         138.1752  140.8746  163.9209 C.ar    1  UNL1        0.2393
     14 N         137.7752  141.1607  162.5038 N.ar    1  UNL1       -0.2075
     15 C         137.7340  140.0494  161.4971 C.ar    1  UNL1        0.1227
     16 C         138.0929  138.6520  161.9075 C.ar    1  UNL1        0.1193
     17 N         138.4929  138.3659  163.3246 N.ar    1  UNL1       -0.2415
     18 C         138.5341  139.4772  164.3313 C.ar    1  UNL1        0.1156
     19 C         139.1700  143.1291  164.7441 C.3     1  UNL1        0.2543
     20 O         138.2163  141.9859  164.9275 O.3     1  UNL1       -0.4553
     21 C         141.6483  137.6763  164.7542 C.3     1  UNL1        0.0394
     22 C         141.9114  137.9769  163.3084 C.3     1  UNL1        0.0765
     23 N         142.5224  139.2888  162.9142 N.3     1  UNL1       -0.2700
     24 C         144.0121  139.4623  162.9466 C.3     1  UNL1        0.0897
     25 C         141.6439  140.4273  162.4875 C.3     1  UNL1        0.0897
@<TRIPOS>BOND
     1    19    20    1
     2    20    13    1
     3    13    14   ar
     4    14    15   ar
     5    15    16   ar
     6    16    17   ar
     7    17    18   ar
     8    18    11    1
     9    11    12    1
    10    11     1    1
    11     1     2    2
    12     2    21    1
    13    21    22    1
    14    22    23    1
    15    23    24    1
    16    23    25    1
    17     2     3    1
    18     3     4    1
    19     4     5   ar
    20     5     6   ar
    21     6     7    1
    22     6     8   ar
    23     8     9   ar
    24     9    10   ar
    25    18    13   ar
    26    10     1    1
    27    10     4   ar
@<TRIPOS>MOLECULE
*****
 25 27 0 0 0
SMALL
GASTEIGER

@<TRIPOS>ATOM
      1 C         139.5598  140.6942  166.1007 C.2     1  UNL1       -0.0245
      2 C         139.3188  142.0980  165.6305 C.2     1  UNL1       -0.0421
      3 C         140.2885  142.9969  166.3387 C.3     1  UNL1        0.0481
      4 C         141.1289  142.1486  167.2466 C.ar    1  UNL1       -0.0162
      5 C         142.2460  142.4883  168.1882 C.ar    1  UNL1        0.0257
      6 C         142.9127  141.4047  168.9828 C.ar    1  UNL1        0.1398
      7 F         144.0298  141.7443  169.9245 F       1  UNL1       -0.2042
      8 C         142.4623  139.9815  168.8356 C.ar    1  UNL1        0.0296
      9 C         141.3452  139.6419  167.8940 C.ar    1  UNL1        0.0017
     10 C         140.6785  140.7254  167.0995 C.ar    1  UNL1       -0.0077
     11 C         138.8133  139.4733  165.6511 C.3     1  UNL1        0.0666
     12 C         137.9175  138.7464  166.6099 C.3     1  UNL1        0.0112
     13 C         140.0943  138.0622  163.8854 C.ar    1  UNL1        0.2393
     14 N         140.2433  137.5682  162.4770 N.ar    1  UNL1       -0.2075
     15 C         139.2606  137.9913  161.4257 C.ar    1  UNL1        0.1227
     16 C         138.1286  138.9084  161.7830 C.ar    1  UNL1        0.1193
     17 N         137.9795  139.4024  163.1914 N.ar    1  UNL1       -0.2415
     18 C         138.9624  138.9793  164.2427 C.ar    1  UNL1        0.1156
     19 C         142.4843  138.1572  164.8996 C.3     1  UNL1        0.2543
     20 O         141.0771  137.6390  164.9366 O.3     1  UNL1       -0.4553
     21 C         138.2889  142.5276  164.6281 C.3     1  UNL1        0.0394
     22 C         138.3734  143.8879  164.0019 C.3     1  UNL1        0.0765
     23 N         139.3618  144.1480  162.9039 N.3     1  UNL1       -0.2700
     24 C         139.1954  143.4798  161.5712 C.3     1  UNL1        0.0897
     25 C         140.5164  145.0762  163.1385 C.3     1  UNL1        0.0897
@<TRIPOS>BOND
     1    19    20    1
     2    20    13    1
     3    13    14   ar
     4    14    15   ar
     5    15    16   ar
     6    16    17   ar
     7    17    18   ar
     8    18    11    1
     9    11    12    1
    10    11     1    1
    11     1     2    2
    12     2    21    1
    13    21    22    1
    14    22    23    1
    15    23    24    1
    16    23    25    1
    17     2     3    1
    18     3     4    1
    19     4     5   ar
    20     5     6   ar
    21     6     7    1
    22     6     8   ar
    23     8     9   ar
    24     9    10   ar
    25    18    13   ar
    26    10     1    1
    27    10     4   ar
@<TRIPOS>MOLECULE
*****
 25 27 0 0 0
SMALL
GASTEIGER

@<TRIPOS>ATOM
      1 C         142.4152  140.3351  166.4769 C.2     1  UNL1       -0.0245
      2 C         143.1604  141.5465  166.0001 C.2     1  UNL1       -0.0421
      3 C         142.7316  142.7141  166.8383 C.3     1  UNL1        0.0481
      4 C         141.7213  142.2245  167.8332 C.ar    1  UNL1       -0.0162
      5 C         140.9542  142.9275  168.9135 C.ar    1  UNL1        0.0257
      6 C         139.9916  142.1601  169.7705 C.ar    1  UNL1        0.1398
      7 F         139.2244  142.8631  170.8510 F       1  UNL1       -0.2042
      8 C         139.7961  140.6898  169.5472 C.ar    1  UNL1        0.0296
      9 C         140.5632  139.9868  168.4668 C.ar    1  UNL1        0.0017
     10 C         141.5258  140.7541  167.6098 C.ar    1  UNL1       -0.0077
     11 C         142.5379  138.9482  165.9188 C.3     1  UNL1        0.0666
     12 C         143.5946  138.0203  166.4410 C.3     1  UNL1        0.0112
     13 C         142.1153  138.2798  163.4440 C.ar    1  UNL1        0.2393
     14 N         141.1813  137.8206  162.3638 N.ar    1  UNL1       -0.2075
     15 C         139.7361  137.5708  162.6781 C.ar    1  UNL1        0.1227
     16 C         139.2247  137.7801  164.0726 C.ar    1  UNL1        0.1193
     17 N         140.1587  138.2393  165.1528 N.ar    1  UNL1       -0.2415
     18 C         141.6040  138.4891  164.8386 C.ar    1  UNL1        0.1156
     19 C         143.9376  139.3158  161.9092 C.3     1  UNL1        0.2543
     20 O         143.5606  138.5296  163.1297 O.3     1  UNL1       -0.4553
     21 C         144.1591  141.5836  164.8815 C.3     1  UNL1        0.0394
     22 C         144.8297  142.8749  164.5174 C.3     1  UNL1        0.0765
     23 N         144.2754  143.7219  163.4105 N.3     1  UNL1       -0.2700
     24 C         144.4065  143.2731  161.9851 C.3     1  UNL1        0.0897
     25 C         143.5899  145.0176  163.7288 C.3     1  UNL1        0.0897
@<TRIPOS>BOND
     1    19    20    1
     2    20    13    1
     3    13    14   ar
     4    14    15   ar
     5    15    16   ar
     6    16    17   ar
     7    17    18   ar
     8    18    11    1
     9    11    12    1
    10    11     1    1
    11     1     2    2
    12     2    21    1
    13    21    22    1
    14    22    23    1
    15    23    24    1
    16    23    25    1
    17     2     3    1
    18     3     4    1
    19     4     5   ar
    20     5     6   ar
    21     6     7    1
    22     6     8   ar
    23     8     9   ar
    24     9    10   ar
    25    18    13   ar
    26    10     1    1
    27    10     4   ar
@<TRIPOS>MOLECULE
*****
 25 27 0 0 0
SMALL
GASTEIGER

@<TRIPOS>ATOM
      1 C         139.9529  140.7907  166.0907 C.2     1  UNL1       -0.0245
      2 C         139.0492  139.6045  166.2523 C.2     1  UNL1       -0.0421
      3 C         138.7798  139.4231  167.7167 C.3     1  UNL1        0.0481
      4 C         139.5170  140.4972  168.4602 C.ar    1  UNL1       -0.0162
      5 C         139.6218  140.8148  169.9224 C.ar    1  UNL1        0.0257
      6 C         140.4516  141.9777  170.3796 C.ar    1  UNL1        0.1398
      7 F         140.5564  142.2954  171.8419 F       1  UNL1       -0.2042
      8 C         141.1767  142.8229  169.3747 C.ar    1  UNL1        0.0296
      9 C         141.0719  142.5053  167.9125 C.ar    1  UNL1        0.0017
     10 C         140.2421  141.3425  167.4552 C.ar    1  UNL1       -0.0077
     11 C         140.4757  141.3304  164.7925 C.3     1  UNL1        0.0666
     12 C         141.6975  140.7257  164.1665 C.3     1  UNL1        0.0112
     13 C         140.4180  143.8306  164.0885 C.ar    1  UNL1        0.2393
     14 N         139.7191  144.9750  163.4162 N.ar    1  UNL1       -0.2075
     15 C         138.3794  144.7638  162.7757 C.ar    1  UNL1        0.1227
     16 C         137.7383  143.4080  162.8074 C.ar    1  UNL1        0.1193
     17 N         138.4371  142.2636  163.4797 N.ar    1  UNL1       -0.2415
     18 C         139.7770  142.4748  164.1203 C.ar    1  UNL1        0.1156
     19 C         142.8917  144.6081  163.9267 C.3     1  UNL1        0.2543
     20 O         141.7578  144.0420  164.7290 O.3     1  UNL1       -0.4553
     21 C         138.5096  138.7497  165.1440 C.3     1  UNL1        0.0394
     22 C         139.3614  137.6684  164.5481 C.3     1  UNL1        0.0765
     23 N         139.7335  137.7214  163.0959 N.3     1  UNL1       -0.2700
     24 C         141.1445  137.4389  162.6724 C.3     1  UNL1        0.0897
     25 C         138.6946  138.0568  162.0673 C.3     1  UNL1        0.0897
@<TRIPOS>BOND
     1    19    20    1
     2    20    13    1
     3    13    14   ar
     4    14    15   ar
     5    15    16   ar
     6    16    17   ar
     7    17    18   ar
     8    18    11    1
     9    11    12    1
    10    11     1    1
    11     1     2    2
    12     2    21    1
    13    21    22    1
    14    22    23    1
    15    23    24    1
    16    23    25    1
    17     2     3    1
    18     3     4    1
    19     4     5   ar
    20     5     6   ar
    21     6     7    1
    22     6     8   ar
    23     8     9   ar
    24     9    10   ar
    25    18    13   ar
    26    10     1    1
    27    10     4   ar
@<TRIPOS>MOLECULE
*****
 25 27 0 0 0
SMALL
GASTEIGER

@<TRIPOS>ATOM
      1 C         140.8762  142.8982  165.3047 C.2     1  UNL1       -0.0245
      2 C         142.2842  143.2853  164.9616 C.2     1  UNL1       -0.0421
      3 C         143.2079  142.5178  165.8604 C.3     1  UNL1        0.0481
      4 C         142.3708  141.6565  166.7589 C.ar    1  UNL1       -0.0162
      5 C         142.7346  140.6885  167.8454 C.ar    1  UNL1        0.0257
      6 C         141.6573  139.9556  168.5885 C.ar    1  UNL1        0.1398
      7 F         142.0211  138.9875  169.6751 F       1  UNL1       -0.2042
      8 C         140.2162  140.1907  168.2451 C.ar    1  UNL1        0.0296
      9 C         139.8524  141.1587  167.1585 C.ar    1  UNL1        0.0017
     10 C         140.9297  141.8916  166.4155 C.ar    1  UNL1       -0.0077
     11 C         139.6329  143.4253  164.6516 C.3     1  UNL1        0.0666
     12 C         138.8714  144.5508  165.2870 C.3     1  UNL1        0.0112
     13 C         138.7069  143.7188  162.2420 C.ar    1  UNL1        0.2393
     14 N         138.2251  143.1205  160.9537 N.ar    1  UNL1       -0.2075
     15 C         138.1873  141.6303  160.7866 C.ar    1  UNL1        0.1227
     16 C         138.6315  140.7384  161.9079 C.ar    1  UNL1        0.1193
     17 N         139.1134  141.3368  163.1962 N.ar    1  UNL1       -0.2415
     18 C         139.1511  142.8270  163.3633 C.ar    1  UNL1        0.1156
     19 C         139.8417  146.0078  161.7700 C.3     1  UNL1        0.2543
     20 O         138.7446  145.2090  162.4090 O.3     1  UNL1       -0.4553
     21 C         142.6962  144.2673  163.9052 C.3     1  UNL1        0.0394
     22 C         144.0771  144.2069  163.3226 C.3     1  UNL1        0.0765
     23 N         144.4613  143.0722  162.4199 N.3     1  UNL1       -0.2700
     24 C         145.4089  142.0155  162.9052 C.3     1  UNL1        0.0897
     25 C         143.8979  142.9942  161.0320 C.3     1  UNL1        0.0897
@<TRIPOS>BOND
     1    19    20    1
     2    20    13    1
     3    13    14   ar
     4    14    15   ar
     5    15    16   ar
     6    16    17   ar
     7    17    18   ar
     8    18    11    1
     9    11    12    1
    10    11     1    1
    11     1     2    2
    12     2    21    1
    13    21    22    1
    14    22    23    1
    15    23    24    1
    16    23    25    1
    17     2     3    1
    18     3     4    1
    19     4     5   ar
    20     5     6   ar
    21     6     7    1
    22     6     8   ar
    23     8     9   ar
    24     9    10   ar
    25    18    13   ar
    26    10     1    1
    27    10     4   ar
@<TRIPOS>MOLECULE
*****
 25 27 0 0 0
SMALL
GASTEIGER

@<TRIPOS>ATOM
      1 C         139.9379  142.3252  165.4894 C.2     1  UNL1       -0.0245
      2 C         139.4469  141.1009  164.7753 C.2     1  UNL1       -0.0421
      3 C         139.2583  140.0151  165.7929 C.3     1  UNL1        0.0481
      4 C         139.6328  140.5684  167.1360 C.ar    1  UNL1       -0.0162
      5 C         139.6456  139.9566  168.5054 C.ar    1  UNL1        0.0257
      6 C         140.0785  140.7725  169.6873 C.ar    1  UNL1        0.1398
      7 F         140.0913  140.1608  171.0569 F       1  UNL1       -0.2042
      8 C         140.4985  142.2003  169.4997 C.ar    1  UNL1        0.0296
      9 C         140.4857  142.8120  168.1302 C.ar    1  UNL1        0.0017
     10 C         140.0528  141.9961  166.9483 C.ar    1  UNL1       -0.0077
     11 C         140.2579  143.6466  164.8558 C.3     1  UNL1        0.0666
     12 C         139.2817  144.7814  164.9540 C.3     1  UNL1        0.0112
     13 C         141.5494  144.2916  162.6957 C.ar    1  UNL1        0.2393
     14 N         142.8454  144.4783  161.9640 N.ar    1  UNL1       -0.2075
     15 C         144.1459  144.2069  162.6605 C.ar    1  UNL1        0.1227
     16 C         144.1503  143.7486  164.0888 C.ar    1  UNL1        0.1193
     17 N         142.8543  143.5619  164.8205 N.ar    1  UNL1       -0.2415
     18 C         141.5538  143.8334  164.1240 C.ar    1  UNL1        0.1156
     19 C         139.9287  145.9487  161.5221 C.3     1  UNL1        0.2543
     20 O         140.2490  144.5631  161.9992 O.3     1  UNL1       -0.4553
     21 C         139.1896  140.9830  163.3022 C.3     1  UNL1        0.0394
     22 C         139.9922  140.0230  162.4752 C.3     1  UNL1        0.0765
     23 N         139.6514  138.5622  162.4797 N.3     1  UNL1       -0.2700
     24 C         140.6999  137.5485  162.8306 C.3     1  UNL1        0.0897
     25 C         138.2621  138.1151  162.1333 C.3     1  UNL1        0.0897
@<TRIPOS>BOND
     1    19    20    1
     2    20    13    1
     3    13    14   ar
     4    14    15   ar
     5    15    16   ar
     6    16    17   ar
     7    17    18   ar
     8    18    11    1
     9    11    12    1
    10    11     1    1
    11     1     2    2
    12     2    21    1
    13    21    22    1
    14    22    23    1
    15    23    24    1
    16    23    25    1
    17     2     3    1
    18     3     4    1
    19     4     5   ar
    20     5     6   ar
    21     6     7    1
    22     6     8   ar
    23     8     9   ar
    24     9    10   ar
    25    18    13   ar
    26    10     1    1
    27    10     4   ar
@<TRIPOS>MOLECULE
*****
 25 27 0 0 0
SMALL
GASTEIGER

@<TRIPOS>ATOM
      1 C         139.0138  142.4256  165.0026 C.2     1  UNL1       -0.0245
      2 C         138.1642  141.3543  164.3856 C.2     1  UNL1       -0.0421
      3 C         138.3002  140.1162  165.2214 C.3     1  UNL1        0.0481
      4 C         139.2337  140.4222  166.3549 C.ar    1  UNL1       -0.0162
      5 C         139.7392  139.5857  167.4927 C.ar    1  UNL1        0.0257
      6 C         140.6857  140.1764  168.4952 C.ar    1  UNL1        0.1398
      7 F         141.1912  139.3398  169.6331 F       1  UNL1       -0.2042
      8 C         141.1268  141.6037  168.3600 C.ar    1  UNL1        0.0296
      9 C         140.6213  142.4402  167.2222 C.ar    1  UNL1        0.0017
     10 C         139.6748  141.8495  166.2196 C.ar    1  UNL1       -0.0077
     11 C         139.1743  143.8269  164.4921 C.3     1  UNL1        0.0666
     12 C         138.5755  144.9745  165.2502 C.3     1  UNL1        0.0112
     13 C         141.4328  144.1176  163.2414 C.ar    1  UNL1        0.2393
     14 N         142.1920  144.3715  161.9728 N.ar    1  UNL1       -0.2075
     15 C         141.4517  144.5884  160.6864 C.ar    1  UNL1        0.1227
     16 C         139.9522  144.5515  160.6685 C.ar    1  UNL1        0.1193
     17 N         139.1931  144.2976  161.9371 N.ar    1  UNL1       -0.2415
     18 C         139.9334  144.0807  163.2236 C.ar    1  UNL1        0.1156
     19 C         143.5858  143.3967  164.5044 C.3     1  UNL1        0.2543
     20 O         142.1732  143.9007  164.5278 O.3     1  UNL1       -0.4553
     21 C         137.3259  141.4963  163.1499 C.3     1  UNL1        0.0394
     22 C         137.8427  141.0004  161.8319 C.3     1  UNL1        0.0765
     23 N         139.0761  140.1481  161.7826 N.3     1  UNL1       -0.2700
     24 C         138.9605  138.6554  161.8763 C.3     1  UNL1        0.0897
     25 C         140.4250  140.7884  161.6397 C.3     1  UNL1        0.0897
@<TRIPOS>BOND
     1    19    20    1
     2    20    13    1
     3    13    14   ar
     4    14    15   ar
     5    15    16   ar
     6    16    17   ar
     7    17    18   ar
     8    18    11    1
     9    11    12    1
    10    11     1    1
    11     1     2    2
    12     2    21    1
    13    21    22    1
    14    22    23    1
    15    23    24    1
    16    23    25    1
    17     2     3    1
    18     3     4    1
    19     4     5   ar
    20     5     6   ar
    21     6     7    1
    22     6     8   ar
    23     8     9   ar
    24     9    10   ar
    25    18    13   ar
    26    10     1    1
    27    10     4   ar
@<TRIPOS>MOLECULE
*****
 25 27 0 0 0
SMALL
GASTEIGER

@<TRIPOS>ATOM
      1 C         139.6523  140.8095  166.4094 C.2     1  UNL1       -0.0245
      2 C         139.6504  142.1676  165.7726 C.2     1  UNL1       -0.0421
      3 C         140.2372  143.1398  166.7526 C.3     1  UNL1        0.0481
      4 C         140.6018  142.3826  167.9950 C.ar    1  UNL1       -0.0162
      5 C         141.2163  142.8185  169.2921 C.ar    1  UNL1        0.0257
      6 C         141.4693  141.8141  170.3770 C.ar    1  UNL1        0.1398
      7 F         142.0838  142.2500  171.6742 F       1  UNL1       -0.2042
      8 C         141.1078  140.3738  170.1649 C.ar    1  UNL1        0.0296
      9 C         140.4934  139.9380  168.8679 C.ar    1  UNL1        0.0017
     10 C         140.2404  140.9423  167.7829 C.ar    1  UNL1       -0.0077
     11 C         139.1538  139.5411  165.7827 C.3     1  UNL1        0.0666
     12 C         137.9182  138.8770  166.3144 C.3     1  UNL1        0.0112
     13 C         139.2876  138.9715  163.2514 C.ar    1  UNL1        0.2393
     14 N         140.0245  138.3671  162.0931 N.ar    1  UNL1       -0.2075
     15 C         141.3644  137.7280  162.3078 C.ar    1  UNL1        0.1227
     16 C         141.9675  137.6932  163.6808 C.ar    1  UNL1        0.1193
     17 N         141.2306  138.2976  164.8391 N.ar    1  UNL1       -0.2415
     18 C         139.8906  138.9368  164.6244 C.ar    1  UNL1        0.1156
     19 C         137.6657  140.3517  161.7634 C.3     1  UNL1        0.2543
     20 O         137.9477  139.6106  163.0367 O.3     1  UNL1       -0.4553
     21 C         139.1495  142.4958  164.3973 C.3     1  UNL1        0.0394
     22 C         140.1034  142.9870  163.3491 C.3     1  UNL1        0.0765
     23 N         140.3614  144.4571  163.1995 N.3     1  UNL1       -0.2700
     24 C         139.3887  145.3165  162.4475 C.3     1  UNL1        0.0897
     25 C         141.5920  145.0677  163.8018 C.3     1  UNL1        0.0897
@<TRIPOS>BOND
     1    19    20    1
     2    20    13    1
     3    13    14   ar
     4    14    15   ar
     5    15    16   ar
     6    16    17   ar
     7    17    18   ar
     8    18    11    1
     9    11    12    1
    10    11     1    1
    11     1     2    2
    12     2    21    1
    13    21    22    1
    14    22    23    1
    15    23    24    1
    16    23    25    1
    17     2     3    1
    18     3     4    1
    19     4     5   ar
    20     5     6   ar
    21     6     7    1
    22     6     8   ar
    23     8     9   ar
    24     9    10   ar
    25    18    13   ar
    26    10     1    1
    27    10     4   ar
