@<TRIPOS>MOLECULE
*****
 28 31 0 0 0
SMALL
GASTEIGER

@<TRIPOS>ATOM
      1 O         140.3483  141.3374  162.8335 O.2     1  UNL1       -0.2734
      2 C         139.6413  140.2423  163.5757 C.2     1  UNL1        0.2420
      3 N         139.5523  140.2869  165.0724 N.am    1  UNL1       -0.2760
      4 C         138.8452  139.1918  165.8146 C.3     1  UNL1        0.0983
      5 C         138.7563  139.2363  167.3113 C.3     1  UNL1        0.0476
      6 C         139.3744  140.3759  168.0659 C.ar    1  UNL1       -0.0229
      7 C         139.2854  140.4204  169.5625 C.ar    1  UNL1       -0.0045
      8 C         139.9035  141.5600  170.3170 C.ar    1  UNL1       -0.0003
      9 C         140.6106  142.6551  169.5748 C.ar    1  UNL1       -0.0003
     10 C         140.6995  142.6106  168.0781 C.ar    1  UNL1       -0.0030
     11 C         140.0814  141.4710  167.3237 C.ar    1  UNL1       -0.0082
     12 C         140.1704  141.4265  165.8269 C.3     1  UNL1        0.0975
     13 C         140.8775  142.5216  165.0847 C.3     1  UNL1        0.0224
     14 C         140.1224  143.7436  164.6527 C.3     1  UNL1        0.0020
     15 C         140.8295  144.8387  163.9105 C.3     1  UNL1        0.0001
     16 C         142.2916  144.7117  163.6003 C.3     1  UNL1        0.0000
     17 C         143.0466  143.4897  164.0323 C.3     1  UNL1        0.0001
     18 C         142.3395  142.3946  164.7745 C.3     1  UNL1        0.0020
     19 C         139.0232  139.1028  162.8212 C.3     1  UNL1        0.1552
     20 N         139.8796  137.9684  162.3420 N.3     1  UNL1       -0.2898
     21 H         140.4447  138.3302  161.5738 H       1  UNL1        0.1237
     22 C         140.8223  137.2879  163.2899 C.3     1  UNL1        0.0689
     23 C         142.0692  137.9894  163.7403 C.3     1  UNL1        0.0158
     24 C         142.3665  138.1246  165.2044 C.3     1  UNL1        0.0014
     25 C         143.6134  138.8261  165.6548 C.3     1  UNL1        0.0000
     26 C         144.5632  139.3925  164.6412 C.3     1  UNL1        0.0000
     27 C         144.2659  139.2573  163.1772 C.3     1  UNL1        0.0000
     28 C         143.0188  138.5558  162.7268 C.3     1  UNL1        0.0014
@<TRIPOS>BOND
     1     1     2    2
     2     2    19    1
     3    19    20    1
     4    20    22    1
     5    22    23    1
     6    23    24    1
     7    24    25    1
     8    25    26    1
     9    26    27    1
    10    27    28    1
    11     2     3   am
    12     3     4    1
    13     4     5    1
    14     5     6    1
    15     6     7   ar
    16     7     8   ar
    17     8     9   ar
    18     9    10   ar
    19    10    11   ar
    20    11    12    1
    21    12    13    1
    22    13    14    1
    23    14    15    1
    24    15    16    1
    25    16    17    1
    26    17    18    1
    27    28    23    1
    28    12     3    1
    29    18    13    1
    30    11     6   ar
    31    20    21    1
@<TRIPOS>MOLECULE
*****
 28 31 0 0 0
SMALL
GASTEIGER

@<TRIPOS>ATOM
      1 O         140.8186  141.6010  162.7338 O.2     1  UNL1       -0.2734
      2 C         141.7912  140.5460  163.1709 C.2     1  UNL1        0.2420
      3 N         141.9586  140.2381  164.6294 N.am    1  UNL1       -0.2760
      4 C         142.9312  139.1831  165.0665 C.3     1  UNL1        0.0983
      5 C         143.0985  138.8752  166.5249 C.3     1  UNL1        0.0476
      6 C         142.2932  139.6223  167.5464 C.ar    1  UNL1       -0.0229
      7 C         142.4605  139.3144  169.0049 C.ar    1  UNL1       -0.0045
      8 C         141.6553  140.0615  170.0263 C.ar    1  UNL1       -0.0003
      9 C         140.6826  141.1165  169.5893 C.ar    1  UNL1       -0.0003
     10 C         140.5153  141.4244  168.1308 C.ar    1  UNL1       -0.0030
     11 C         141.3206  140.6773  167.1094 C.ar    1  UNL1       -0.0082
     12 C         141.1533  140.9852  165.6508 C.3     1  UNL1        0.0975
     13 C         140.1806  142.0402  165.2138 C.3     1  UNL1        0.0224
     14 C         138.7559  141.6724  164.9226 C.3     1  UNL1        0.0020
     15 C         137.7832  142.7274  164.4855 C.3     1  UNL1        0.0001
     16 C         138.2354  144.1502  164.3397 C.3     1  UNL1        0.0000
     17 C         139.6601  144.5179  164.6309 C.3     1  UNL1        0.0001
     18 C         140.6328  143.4630  165.0680 C.3     1  UNL1        0.0020
     19 C         142.5965  139.7989  162.1495 C.3     1  UNL1        0.1552
     20 N         143.8036  140.4397  161.5312 N.3     1  UNL1       -0.2898
     21 H         143.4620  141.1721  160.9089 H       1  UNL1        0.1237
     22 C         144.8501  141.0665  162.4042 C.3     1  UNL1        0.0689
     23 C         144.5542  142.3460  163.1289 C.3     1  UNL1        0.0158
     24 C         144.7597  142.4326  164.6122 C.3     1  UNL1        0.0014
     25 C         144.4637  143.7121  165.3369 C.3     1  UNL1        0.0000
     26 C         143.9623  144.9051  164.5783 C.3     1  UNL1        0.0000
     27 C         143.7568  144.8185  163.0950 C.3     1  UNL1        0.0000
     28 C         144.0528  143.5389  162.3703 C.3     1  UNL1        0.0014
@<TRIPOS>BOND
     1     1     2    2
     2     2    19    1
     3    19    20    1
     4    20    22    1
     5    22    23    1
     6    23    24    1
     7    24    25    1
     8    25    26    1
     9    26    27    1
    10    27    28    1
    11     2     3   am
    12     3     4    1
    13     4     5    1
    14     5     6    1
    15     6     7   ar
    16     7     8   ar
    17     8     9   ar
    18     9    10   ar
    19    10    11   ar
    20    11    12    1
    21    12    13    1
    22    13    14    1
    23    14    15    1
    24    15    16    1
    25    16    17    1
    26    17    18    1
    27    28    23    1
    28    12     3    1
    29    18    13    1
    30    11     6   ar
    31    20    21    1
@<TRIPOS>MOLECULE
*****
 28 31 0 0 0
SMALL
GASTEIGER

@<TRIPOS>ATOM
      1 O         142.9470  141.3425  162.8552 O.2     1  UNL1       -0.2734
      2 C         143.0596  140.0328  163.5777 C.2     1  UNL1        0.2420
      3 N         142.9620  139.9908  165.0740 N.am    1  UNL1       -0.2760
      4 C         143.0745  138.6811  165.7964 C.3     1  UNL1        0.0983
      5 C         142.9769  138.6390  167.2926 C.3     1  UNL1        0.0476
      6 C         142.7667  139.9068  168.0664 C.ar    1  UNL1       -0.0229
      7 C         142.6691  139.8648  169.5626 C.ar    1  UNL1       -0.0045
      8 C         142.4589  141.1325  170.3364 C.ar    1  UNL1       -0.0003
      9 C         142.3463  142.4422  169.6139 C.ar    1  UNL1       -0.0003
     10 C         142.4439  142.4842  168.1177 C.ar    1  UNL1       -0.0030
     11 C         142.6541  141.2165  167.3440 C.ar    1  UNL1       -0.0082
     12 C         142.7518  141.2585  165.8477 C.3     1  UNL1        0.0975
     13 C         142.6392  142.5682  165.1252 C.3     1  UNL1        0.0224
     14 C         141.2969  143.0628  164.6738 C.3     1  UNL1        0.0020
     15 C         141.1843  144.3725  163.9513 C.3     1  UNL1        0.0001
     16 C         142.4141  145.1877  163.6803 C.3     1  UNL1        0.0000
     17 C         143.7563  144.6931  164.1317 C.3     1  UNL1        0.0001
     18 C         143.8688  143.3833  164.8542 C.3     1  UNL1        0.0020
     19 C         143.2698  138.7651  162.8039 C.3     1  UNL1        0.1552
     20 N         142.1486  137.7790  162.6611 N.3     1  UNL1       -0.2898
     21 H         142.1329  137.2249  163.5174 H       1  UNL1        0.1237
     22 C         140.7475  138.2641  162.4336 C.3     1  UNL1        0.0689
     23 C         139.8819  138.6312  163.6023 C.3     1  UNL1        0.0158
     24 C         139.3688  140.0336  163.7444 C.3     1  UNL1        0.0014
     25 C         138.5032  140.4007  164.9131 C.3     1  UNL1        0.0000
     26 C         138.1506  139.3654  165.9397 C.3     1  UNL1        0.0000
     27 C         138.6636  137.9631  165.7976 C.3     1  UNL1        0.0000
     28 C         139.5292  137.5960  164.6289 C.3     1  UNL1        0.0014
@<TRIPOS>BOND
     1     1     2    2
     2     2    19    1
     3    19    20    1
     4    20    22    1
     5    22    23    1
     6    23    24    1
     7    24    25    1
     8    25    26    1
     9    26    27    1
    10    27    28    1
    11     2     3   am
    12     3     4    1
    13     4     5    1
    14     5     6    1
    15     6     7   ar
    16     7     8   ar
    17     8     9   ar
    18     9    10   ar
    19    10    11   ar
    20    11    12    1
    21    12    13    1
    22    13    14    1
    23    14    15    1
    24    15    16    1
    25    16    17    1
    26    17    18    1
    27    28    23    1
    28    12     3    1
    29    18    13    1
    30    11     6   ar
    31    20    21    1
@<TRIPOS>MOLECULE
*****
 28 31 0 0 0
SMALL
GASTEIGER

@<TRIPOS>ATOM
      1 O         141.5290  139.6114  163.3173 O.2     1  UNL1       -0.2734
      2 C         140.2596  139.3935  164.0862 C.2     1  UNL1        0.2420
      3 N         140.2385  139.5971  165.5722 N.am    1  UNL1       -0.2760
      4 C         138.9691  139.3793  166.3411 C.3     1  UNL1        0.0983
      5 C         138.9480  139.5829  167.8270 C.3     1  UNL1        0.0476
      6 C         140.1963  140.0043  168.5441 C.ar    1  UNL1       -0.0229
      7 C         140.1752  140.2079  170.0301 C.ar    1  UNL1       -0.0045
      8 C         141.4234  140.6293  170.7471 C.ar    1  UNL1       -0.0003
      9 C         142.6928  140.8472  169.9782 C.ar    1  UNL1       -0.0003
     10 C         142.7139  140.6436  168.4923 C.ar    1  UNL1       -0.0030
     11 C         141.4657  140.2222  167.7753 C.ar    1  UNL1       -0.0082
     12 C         141.4868  140.0186  166.2892 C.3     1  UNL1        0.0975
     13 C         142.7562  140.2364  165.5203 C.3     1  UNL1        0.0224
     14 C         143.0896  141.6010  164.9943 C.3     1  UNL1        0.0020
     15 C         144.3590  141.8188  164.2254 C.3     1  UNL1        0.0001
     16 C         145.2950  140.6720  163.9826 C.3     1  UNL1        0.0000
     17 C         144.9615  139.3075  164.5086 C.3     1  UNL1        0.0001
     18 C         143.6921  139.0896  165.2775 C.3     1  UNL1        0.0020
     19 C         139.0113  138.9721  163.3691 C.3     1  UNL1        0.1552
     20 N         138.2251  139.9759  162.5792 N.3     1  UNL1       -0.2898
     21 H         137.5578  139.4495  162.0153 H       1  UNL1        0.1237
     22 C         137.4456  141.0438  163.2878 C.3     1  UNL1        0.0689
     23 C         138.0817  142.3718  163.5740 C.3     1  UNL1        0.0158
     24 C         138.7194  142.6261  164.9077 C.3     1  UNL1        0.0014
     25 C         139.3555  143.9540  165.1939 C.3     1  UNL1        0.0000
     26 C         139.3540  145.0277  164.1463 C.3     1  UNL1        0.0000
     27 C         138.7164  144.7733  162.8126 C.3     1  UNL1        0.0000
     28 C         138.0802  143.4453  162.5265 C.3     1  UNL1        0.0014
@<TRIPOS>BOND
     1     1     2    2
     2     2    19    1
     3    19    20    1
     4    20    22    1
     5    22    23    1
     6    23    24    1
     7    24    25    1
     8    25    26    1
     9    26    27    1
    10    27    28    1
    11     2     3   am
    12     3     4    1
    13     4     5    1
    14     5     6    1
    15     6     7   ar
    16     7     8   ar
    17     8     9   ar
    18     9    10   ar
    19    10    11   ar
    20    11    12    1
    21    12    13    1
    22    13    14    1
    23    14    15    1
    24    15    16    1
    25    16    17    1
    26    17    18    1
    27    28    23    1
    28    12     3    1
    29    18    13    1
    30    11     6   ar
    31    20    21    1
@<TRIPOS>MOLECULE
*****
 28 31 0 0 0
SMALL
GASTEIGER

@<TRIPOS>ATOM
      1 O         141.1885  141.9102  163.0818 O.2     1  UNL1       -0.2734
      2 C         142.2666  141.0168  163.6200 C.2     1  UNL1        0.2420
      3 N         142.2310  140.5787  165.0542 N.am    1  UNL1       -0.2760
      4 C         143.3091  139.6852  165.5923 C.3     1  UNL1        0.0983
      5 C         143.2736  139.2471  167.0264 C.3     1  UNL1        0.0476
      6 C         142.1601  139.7024  167.9225 C.ar    1  UNL1       -0.0229
      7 C         142.1246  139.2643  169.3566 C.ar    1  UNL1       -0.0045
      8 C         141.0111  139.7196  170.2525 C.ar    1  UNL1       -0.0003
      9 C         139.9331  140.6131  169.7144 C.ar    1  UNL1       -0.0003
     10 C         139.9685  141.0512  168.2803 C.ar    1  UNL1       -0.0030
     11 C         141.0820  140.5959  167.3843 C.ar    1  UNL1       -0.0082
     12 C         141.1175  141.0340  165.9501 C.3     1  UNL1        0.0975
     13 C         140.0395  141.9274  165.4119 C.3     1  UNL1        0.0224
     14 C         140.1851  143.4176  165.5037 C.3     1  UNL1        0.0020
     15 C         139.1071  144.3110  164.9656 C.3     1  UNL1        0.0001
     16 C         137.8835  143.7143  164.3356 C.3     1  UNL1        0.0000
     17 C         137.7379  142.2242  164.2438 C.3     1  UNL1        0.0001
     18 C         138.8160  141.3308  164.7820 C.3     1  UNL1        0.0020
     19 C         143.3800  140.5615  162.7240 C.3     1  UNL1        0.1552
     20 N         143.1507  139.4420  161.7524 N.3     1  UNL1       -0.2898
     21 H         144.0311  139.2960  161.2583 H       1  UNL1        0.1237
     22 C         142.7043  138.0984  162.2480 C.3     1  UNL1        0.0689
     23 C         141.3501  137.9418  162.8736 C.3     1  UNL1        0.0158
     24 C         141.2268  137.4191  164.2742 C.3     1  UNL1        0.0014
     25 C         139.8725  137.2625  164.8998 C.3     1  UNL1        0.0000
     26 C         138.6414  137.6286  164.1248 C.3     1  UNL1        0.0000
     27 C         138.7647  138.1512  162.7242 C.3     1  UNL1        0.0000
     28 C         140.1191  138.3078  162.0986 C.3     1  UNL1        0.0014
@<TRIPOS>BOND
     1     1     2    2
     2     2    19    1
     3    19    20    1
     4    20    22    1
     5    22    23    1
     6    23    24    1
     7    24    25    1
     8    25    26    1
     9    26    27    1
    10    27    28    1
    11     2     3   am
    12     3     4    1
    13     4     5    1
    14     5     6    1
    15     6     7   ar
    16     7     8   ar
    17     8     9   ar
    18     9    10   ar
    19    10    11   ar
    20    11    12    1
    21    12    13    1
    22    13    14    1
    23    14    15    1
    24    15    16    1
    25    16    17    1
    26    17    18    1
    27    28    23    1
    28    12     3    1
    29    18    13    1
    30    11     6   ar
    31    20    21    1
@<TRIPOS>MOLECULE
*****
 28 31 0 0 0
SMALL
GASTEIGER

@<TRIPOS>ATOM
      1 O         142.7523  139.6924  166.5391 O.2     1  UNL1       -0.2734
      2 C         142.7181  139.7529  165.0407 C.2     1  UNL1        0.2420
      3 N         141.7708  140.6881  164.3492 N.am    1  UNL1       -0.2760
      4 C         141.7366  140.7485  162.8508 C.3     1  UNL1        0.0983
      5 C         140.7894  141.6836  162.1593 C.3     1  UNL1        0.0476
      6 C         139.8763  142.5584  162.9662 C.ar    1  UNL1       -0.0229
      7 C         138.9290  143.4935  162.2748 C.ar    1  UNL1       -0.0045
      8 C         138.0159  144.3682  163.0817 C.ar    1  UNL1       -0.0003
      9 C         138.0501  144.3078  164.5801 C.ar    1  UNL1       -0.0003
     10 C         138.9974  143.3727  165.2715 C.ar    1  UNL1       -0.0030
     11 C         139.9104  142.4980  164.4646 C.ar    1  UNL1       -0.0082
     12 C         140.8577  141.5628  165.1561 C.3     1  UNL1        0.0975
     13 C         140.8919  141.5023  166.6545 C.3     1  UNL1        0.0224
     14 C         141.8144  142.4036  167.4206 C.3     1  UNL1        0.0020
     15 C         141.8486  142.3432  168.9190 C.3     1  UNL1        0.0001
     16 C         140.9603  141.3815  169.6513 C.3     1  UNL1        0.0000
     17 C         140.0379  140.4803  168.8852 C.3     1  UNL1        0.0001
     18 C         140.0037  140.5407  167.3868 C.3     1  UNL1        0.0020
     19 C         143.6312  138.8781  164.2338 C.3     1  UNL1        0.1552
     20 N         144.8494  139.4637  163.5834 N.3     1  UNL1       -0.2898
     21 H         144.5912  139.6877  162.6224 H       1  UNL1        0.1237
     22 C         145.4887  140.6931  164.1579 C.3     1  UNL1        0.0689
     23 C         144.9394  142.0489  163.8259 C.3     1  UNL1        0.0158
     24 C         144.8009  142.4719  162.3935 C.3     1  UNL1        0.0014
     25 C         144.2517  143.8276  162.0616 C.3     1  UNL1        0.0000
     26 C         143.8409  144.7605  163.1621 C.3     1  UNL1        0.0000
     27 C         143.9795  144.3375  164.5946 C.3     1  UNL1        0.0000
     28 C         144.5287  142.9817  164.9265 C.3     1  UNL1        0.0014
@<TRIPOS>BOND
     1     1     2    2
     2     2    19    1
     3    19    20    1
     4    20    22    1
     5    22    23    1
     6    23    24    1
     7    24    25    1
     8    25    26    1
     9    26    27    1
    10    27    28    1
    11     2     3   am
    12     3     4    1
    13     4     5    1
    14     5     6    1
    15     6     7   ar
    16     7     8   ar
    17     8     9   ar
    18     9    10   ar
    19    10    11   ar
    20    11    12    1
    21    12    13    1
    22    13    14    1
    23    14    15    1
    24    15    16    1
    25    16    17    1
    26    17    18    1
    27    28    23    1
    28    12     3    1
    29    18    13    1
    30    11     6   ar
    31    20    21    1
@<TRIPOS>MOLECULE
*****
 28 31 0 0 0
SMALL
GASTEIGER

@<TRIPOS>ATOM
      1 O         142.0720  142.0006  162.7082 O.2     1  UNL1       -0.2734
      2 C         140.8538  142.6159  163.3309 C.2     1  UNL1        0.2420
      3 N         140.7757  142.7833  164.8195 N.am    1  UNL1       -0.2760
      4 C         139.5576  143.3986  165.4421 C.3     1  UNL1        0.0983
      5 C         139.4795  143.5661  166.9306 C.3     1  UNL1        0.0476
      6 C         140.6195  143.1183  167.7966 C.ar    1  UNL1       -0.0229
      7 C         140.5414  143.2857  169.2852 C.ar    1  UNL1       -0.0045
      8 C         141.6813  142.8380  170.1511 C.ar    1  UNL1       -0.0003
      9 C         142.8995  142.2227  169.5285 C.ar    1  UNL1       -0.0003
     10 C         142.9776  142.0552  168.0400 C.ar    1  UNL1       -0.0030
     11 C         141.8376  142.5030  167.1740 C.ar    1  UNL1       -0.0082
     12 C         141.9157  142.3356  165.6854 C.3     1  UNL1        0.0975
     13 C         143.1338  141.7203  165.0628 C.3     1  UNL1        0.0224
     14 C         143.2118  140.2338  164.8773 C.3     1  UNL1        0.0020
     15 C         144.4299  139.6186  164.2547 C.3     1  UNL1        0.0001
     16 C         145.5701  140.4898  163.8176 C.3     1  UNL1        0.0000
     17 C         145.4921  141.9762  164.0031 C.3     1  UNL1        0.0001
     18 C         144.2740  142.5915  164.6257 C.3     1  UNL1        0.0020
     19 C         139.7139  143.0637  162.4649 C.3     1  UNL1        0.1552
     20 N         138.7146  142.0634  161.9641 N.3     1  UNL1       -0.2898
     21 H         139.2453  141.3149  161.5185 H       1  UNL1        0.1237
     22 C         137.7636  141.4090  162.9220 C.3     1  UNL1        0.0689
     23 C         138.1675  140.1565  163.6418 C.3     1  UNL1        0.0158
     24 C         138.1747  140.1225  165.1414 C.3     1  UNL1        0.0014
     25 C         138.5785  138.8700  165.8612 C.3     1  UNL1        0.0000
     26 C         138.9752  137.6515  165.0814 C.3     1  UNL1        0.0000
     27 C         138.9679  137.6856  163.5818 C.3     1  UNL1        0.0000
     28 C         138.5641  138.9381  162.8620 C.3     1  UNL1        0.0014
@<TRIPOS>BOND
     1     1     2    2
     2     2    19    1
     3    19    20    1
     4    20    22    1
     5    22    23    1
     6    23    24    1
     7    24    25    1
     8    25    26    1
     9    26    27    1
    10    27    28    1
    11     2     3   am
    12     3     4    1
    13     4     5    1
    14     5     6    1
    15     6     7   ar
    16     7     8   ar
    17     8     9   ar
    18     9    10   ar
    19    10    11   ar
    20    11    12    1
    21    12    13    1
    22    13    14    1
    23    14    15    1
    24    15    16    1
    25    16    17    1
    26    17    18    1
    27    28    23    1
    28    12     3    1
    29    18    13    1
    30    11     6   ar
    31    20    21    1
@<TRIPOS>MOLECULE
*****
 28 31 0 0 0
SMALL
GASTEIGER

@<TRIPOS>ATOM
      1 O         141.2987  141.2479  161.6114 O.2     1  UNL1       -0.2734
      2 C         142.2011  142.2610  162.2513 C.2     1  UNL1        0.2420
      3 N         142.4734  142.1981  163.7251 N.am    1  UNL1       -0.2760
      4 C         143.3757  143.2112  164.3649 C.3     1  UNL1        0.0983
      5 C         143.6480  143.1484  165.8386 C.3     1  UNL1        0.0476
      6 C         143.0179  142.0725  166.6726 C.ar    1  UNL1       -0.0229
      7 C         143.2901  142.0097  168.1463 C.ar    1  UNL1       -0.0045
      8 C         142.6600  140.9338  168.9802 C.ar    1  UNL1       -0.0003
      9 C         141.7576  139.9207  168.3403 C.ar    1  UNL1       -0.0003
     10 C         141.4854  139.9835  166.8666 C.ar    1  UNL1       -0.0030
     11 C         142.1155  141.0594  166.0327 C.ar    1  UNL1       -0.0082
     12 C         141.8432  141.1223  164.5589 C.3     1  UNL1        0.0975
     13 C         140.9409  140.1092  163.9191 C.3     1  UNL1        0.0224
     14 C         141.5125  138.8342  163.3733 C.3     1  UNL1        0.0020
     15 C         140.6101  137.8212  162.7335 C.3     1  UNL1        0.0001
     16 C         139.1361  138.0831  162.6394 C.3     1  UNL1        0.0000
     17 C         138.5645  139.3580  163.1851 C.3     1  UNL1        0.0001
     18 C         139.4669  140.3710  163.8250 C.3     1  UNL1        0.0020
     19 C         142.8312  143.3369  161.4174 C.3     1  UNL1        0.1552
     20 N         142.3062  144.7404  161.4825 N.3     1  UNL1       -0.2898
     21 H         142.7758  145.2650  160.7445 H       1  UNL1        0.1237
     22 C         140.8366  144.9993  161.3298 C.3     1  UNL1        0.0689
     23 C         139.8888  144.6109  162.4256 C.3     1  UNL1        0.0158
     24 C         140.1833  144.9985  163.8444 C.3     1  UNL1        0.0014
     25 C         139.2355  144.6101  164.9402 C.3     1  UNL1        0.0000
     26 C         137.9931  143.8341  164.6172 C.3     1  UNL1        0.0000
     27 C         137.6985  143.4465  163.1984 C.3     1  UNL1        0.0000
     28 C         138.6464  143.8349  162.1025 C.3     1  UNL1        0.0014
@<TRIPOS>BOND
     1     1     2    2
     2     2    19    1
     3    19    20    1
     4    20    22    1
     5    22    23    1
     6    23    24    1
     7    24    25    1
     8    25    26    1
     9    26    27    1
    10    27    28    1
    11     2     3   am
    12     3     4    1
    13     4     5    1
    14     5     6    1
    15     6     7   ar
    16     7     8   ar
    17     8     9   ar
    18     9    10   ar
    19    10    11   ar
    20    11    12    1
    21    12    13    1
    22    13    14    1
    23    14    15    1
    24    15    16    1
    25    16    17    1
    26    17    18    1
    27    28    23    1
    28    12     3    1
    29    18    13    1
    30    11     6   ar
    31    20    21    1
@<TRIPOS>MOLECULE
*****
 28 31 0 0 0
SMALL
GASTEIGER

@<TRIPOS>ATOM
      1 O         138.4898  141.5836  165.0124 O.2     1  UNL1       -0.2734
      2 C         138.8460  141.6629  163.5574 C.2     1  UNL1        0.2420
      3 N         140.2853  141.7303  163.1403 N.am    1  UNL1       -0.2760
      4 C         140.6416  141.8096  161.6854 C.3     1  UNL1        0.0983
      5 C         142.0808  141.8769  161.2682 C.3     1  UNL1        0.0476
      6 C         143.1639  141.8650  162.3060 C.ar    1  UNL1       -0.0229
      7 C         144.6031  141.9324  161.8888 C.ar    1  UNL1       -0.0045
      8 C         145.6860  141.9204  162.9266 C.ar    1  UNL1       -0.0003
      9 C         145.3298  141.8411  164.3815 C.ar    1  UNL1       -0.0003
     10 C         143.8906  141.7737  164.7987 C.ar    1  UNL1       -0.0030
     11 C         142.8076  141.7857  163.7609 C.ar    1  UNL1       -0.0082
     12 C         141.3683  141.7183  164.1781 C.3     1  UNL1        0.0975
     13 C         141.0121  141.6390  165.6330 C.3     1  UNL1        0.0224
     14 C         140.8800  140.3024  166.3010 C.3     1  UNL1        0.0020
     15 C         140.5237  140.2231  167.7559 C.3     1  UNL1        0.0001
     16 C         140.2996  141.4804  168.5428 C.3     1  UNL1        0.0000
     17 C         140.4317  142.8169  167.8748 C.3     1  UNL1        0.0001
     18 C         140.7879  142.8962  166.4199 C.3     1  UNL1        0.0020
     19 C         137.7631  141.6749  162.5197 C.3     1  UNL1        0.1552
     20 N         137.0717  140.3983  162.1425 N.3     1  UNL1       -0.2898
     21 H         136.3528  140.6429  161.4615 H       1  UNL1        0.1237
     22 C         137.8584  139.2650  161.5535 C.3     1  UNL1        0.0689
     23 C         138.9049  138.5719  162.3747 C.3     1  UNL1        0.0158
     24 C         138.6155  138.1988  163.7984 C.3     1  UNL1        0.0014
     25 C         139.6620  137.5057  164.6196 C.3     1  UNL1        0.0000
     26 C         140.9980  137.1857  164.0171 C.3     1  UNL1        0.0000
     27 C         141.2873  137.5588  162.5933 C.3     1  UNL1        0.0000
     28 C         140.2407  138.2519  161.7721 C.3     1  UNL1        0.0014
@<TRIPOS>BOND
     1     1     2    2
     2     2    19    1
     3    19    20    1
     4    20    22    1
     5    22    23    1
     6    23    24    1
     7    24    25    1
     8    25    26    1
     9    26    27    1
    10    27    28    1
    11     2     3   am
    12     3     4    1
    13     4     5    1
    14     5     6    1
    15     6     7   ar
    16     7     8   ar
    17     8     9   ar
    18     9    10   ar
    19    10    11   ar
    20    11    12    1
    21    12    13    1
    22    13    14    1
    23    14    15    1
    24    15    16    1
    25    16    17    1
    26    17    18    1
    27    28    23    1
    28    12     3    1
    29    18    13    1
    30    11     6   ar
    31    20    21    1
