@<TRIPOS>MOLECULE
*****
 31 33 0 0 0
SMALL
GASTEIGER

@<TRIPOS>ATOM
      1 C         141.8411  140.8387  167.2221 C.ar    1  UNL1        0.1409
      2 N         140.6561  140.3122  166.4680 N.ar    1  UNL1       -0.1986
      3 C         139.4677  139.7819  167.2140 C.ar    1  UNL1        0.2181
      4 N         139.4642  139.7780  168.7139 N.ar    1  UNL1       -0.2120
      5 C         140.6492  140.3045  169.4680 C.ar    1  UNL1        0.1091
      6 C         141.8376  140.8349  168.7221 C.ar    1  UNL1        0.1040
      7 C         143.0226  141.3614  169.4762 C.2     1  UNL1        0.2470
      8 N         143.5959  140.5740  170.6169 N.am    1  UNL1       -0.3252
      9 O         143.6342  142.6754  169.0896 O.2     1  UNL1       -0.2702
     10 H         143.1945  139.7116  170.8707 H       1  UNL1        0.1453
     11 H         144.3736  140.9196  171.1119 H       1  UNL1        0.1453
     12 N         143.0295  141.3690  166.4762 N.pl3   1  UNL1       -0.2977
     13 H         143.9001  140.9155  166.5511 H       1  UNL1        0.1536
     14 C         140.0318  144.7593  163.9229 C.3     1  UNL1        0.0311
     15 C         141.3926  144.2854  164.3396 C.ar    1  UNL1       -0.0206
     16 C         142.6153  145.0327  163.8964 C.ar    1  UNL1       -0.0042
     17 C         143.9761  144.5588  164.3131 C.ar    1  UNL1        0.0009
     18 C         144.1142  143.3376  165.1730 C.ar    1  UNL1        0.0146
     19 C         142.8915  142.5903  165.6162 C.ar    1  UNL1        0.0491
     20 C         141.5307  143.0642  165.1995 C.ar    1  UNL1        0.0104
     21 N         138.2827  139.2553  166.4599 N.pl3   1  UNL1       -0.3009
     22 H         137.4388  139.0741  166.9334 H       1  UNL1        0.1497
     23 C         138.3836  139.0050  164.9843 C.3     1  UNL1        0.1155
     24 C         138.8664  137.6774  164.4801 C.3     1  UNL1        0.1629
     25 O         138.9673  137.4270  163.0045 O.3     1  UNL1       -0.3519
     26 C         138.5853  138.5044  162.0332 C.3     1  UNL1        0.1437
     27 C         138.1024  139.8320  162.5375 C.3     1  UNL1        0.0493
     28 C         138.0015  140.0823  164.0130 C.3     1  UNL1        0.0740
     29 N         137.5186  141.4100  164.5172 N.3     1  UNL1       -0.3207
     30 H         137.5133  141.4048  165.5372 H       1  UNL1        0.1189
     31 H         136.5738  141.5812  164.1731 H       1  UNL1        0.1189
@<TRIPOS>BOND
     1    14    15    1
     2    15    16   ar
     3    16    17   ar
     4    17    18   ar
     5    18    19   ar
     6    19    12    1
     7    12     1    1
     8     1     2   ar
     9     2     3   ar
    10     3    21    1
    11    23    21    1
    12    23    24    1
    13    24    25    1
    14    25    26    1
    15    26    27    1
    16    27    28    1
    17    28    29    1
    18     3     4   ar
    19     4     5   ar
    20     5     6   ar
    21     6     7    1
    22     7     8   am
    23     7     9    2
    24    19    20   ar
    25    20    15   ar
    26     6     1   ar
    27    28    23    1
    28    12    13    1
    29    21    22    1
    30    29    30    1
    31    29    31    1
    32     8    10    1
    33     8    11    1
@<TRIPOS>MOLECULE
*****
 31 33 0 0 0
SMALL
GASTEIGER

@<TRIPOS>ATOM
      1 C         139.6442  140.8511  165.4358 C.ar    1  UNL1        0.1409
      2 N         140.1589  140.8649  166.8446 N.ar    1  UNL1       -0.1986
      3 C         139.5374  139.9738  167.8789 C.ar    1  UNL1        0.2181
      4 N         138.4013  139.0689  167.5043 N.ar    1  UNL1       -0.2120
      5 C         137.8866  139.0550  166.0954 C.ar    1  UNL1        0.1091
      6 C         138.5081  139.9461  165.0612 C.ar    1  UNL1        0.1040
      7 C         137.9934  139.9323  163.6523 C.2     1  UNL1        0.2470
      8 N         137.0446  140.9980  163.1899 N.am    1  UNL1       -0.3252
      9 O         138.4277  138.8527  162.7057 O.2     1  UNL1       -0.2702
     10 H         136.7595  141.7066  163.8112 H       1  UNL1        0.1453
     11 H         136.7068  140.9889  162.2652 H       1  UNL1        0.1453
     12 N         140.2657  141.7422  164.4015 N.pl3   1  UNL1       -0.2977
     13 H         139.7061  142.1461  163.6994 H       1  UNL1        0.1536
     14 C         145.1691  140.0430  164.1391 C.3     1  UNL1        0.0311
     15 C         144.1914  141.1683  164.3058 C.ar    1  UNL1       -0.0206
     16 C         144.6877  142.5693  164.5080 C.ar    1  UNL1       -0.0042
     17 C         143.7100  143.6946  164.6746 C.ar    1  UNL1        0.0009
     18 C         142.2360  143.4189  164.6392 C.ar    1  UNL1        0.0146
     19 C         141.7397  142.0179  164.4370 C.ar    1  UNL1        0.0491
     20 C         142.7174  140.8926  164.2703 C.ar    1  UNL1        0.0104
     21 N         140.0520  139.9876  169.2878 N.pl3   1  UNL1       -0.3009
     22 H         139.7273  139.3226  169.9371 H       1  UNL1        0.1497
     23 C         141.0615  141.0147  169.7075 C.3     1  UNL1        0.1155
     24 C         140.6059  142.3212  170.2867 C.3     1  UNL1        0.1629
     25 O         141.6154  143.3483  170.7064 O.3     1  UNL1       -0.3519
     26 C         143.0805  143.0689  170.5468 C.3     1  UNL1        0.1437
     27 C         143.5361  141.7623  169.9675 C.3     1  UNL1        0.0493
     28 C         142.5266  140.7353  169.5479 C.3     1  UNL1        0.0740
     29 N         142.9822  139.4288  168.9686 N.3     1  UNL1       -0.3207
     30 H         142.1695  138.8559  168.7410 H       1  UNL1        0.1189
     31 H         143.5634  138.9393  169.6491 H       1  UNL1        0.1189
@<TRIPOS>BOND
     1    14    15    1
     2    15    16   ar
     3    16    17   ar
     4    17    18   ar
     5    18    19   ar
     6    19    12    1
     7    12     1    1
     8     1     2   ar
     9     2     3   ar
    10     3    21    1
    11    23    21    1
    12    23    24    1
    13    24    25    1
    14    25    26    1
    15    26    27    1
    16    27    28    1
    17    28    29    1
    18     3     4   ar
    19     4     5   ar
    20     5     6   ar
    21     6     7    1
    22     7     8   am
    23     7     9    2
    24    19    20   ar
    25    20    15   ar
    26     6     1   ar
    27    28    23    1
    28    12    13    1
    29    21    22    1
    30    29    30    1
    31    29    31    1
    32     8    10    1
    33     8    11    1
@<TRIPOS>MOLECULE
*****
 31 33 0 0 0
SMALL
GASTEIGER

@<TRIPOS>ATOM
      1 C         140.0368  140.1491  165.4368 C.ar    1  UNL1        0.1409
      2 N         140.4067  140.3686  166.8738 N.ar    1  UNL1       -0.1986
      3 C         139.5602  139.7814  167.9642 C.ar    1  UNL1        0.2181
      4 N         138.3440  138.9748  167.6175 N.ar    1  UNL1       -0.2120
      5 C         137.9742  138.7553  166.1805 C.ar    1  UNL1        0.1091
      6 C         138.8205  139.3424  165.0901 C.ar    1  UNL1        0.1040
      7 C         138.4507  139.1230  163.6531 C.2     1  UNL1        0.2470
      8 N         138.6171  137.7666  163.0346 N.am    1  UNL1       -0.3252
      9 O         137.9144  140.2599  162.8346 O.2     1  UNL1       -0.2702
     10 H         138.9690  137.0205  163.5718 H       1  UNL1        0.1453
     11 H         138.3743  137.6226  162.0914 H       1  UNL1        0.1453
     12 N         140.8832  140.7362  164.3464 N.pl3   1  UNL1       -0.2977
     13 H         141.3871  140.1447  163.7419 H       1  UNL1        0.1536
     14 C         143.6984  145.0350  163.5751 C.3     1  UNL1        0.0311
     15 C         142.3694  144.3739  163.7914 C.ar    1  UNL1       -0.0206
     16 C         141.1191  145.2012  163.8384 C.ar    1  UNL1       -0.0042
     17 C         139.7901  144.5401  164.0546 C.ar    1  UNL1        0.0009
     18 C         139.7114  143.0518  164.2240 C.ar    1  UNL1        0.0146
     19 C         140.9618  142.2246  164.1770 C.ar    1  UNL1        0.0491
     20 C         142.2908  142.8856  163.9607 C.ar    1  UNL1        0.0104
     21 N         139.9301  140.0009  169.4012 N.pl3   1  UNL1       -0.3009
     22 H         139.4980  139.4684  170.1076 H       1  UNL1        0.1497
     23 C         140.9584  141.0317  169.7620 C.3     1  UNL1        0.1155
     24 C         140.5288  142.3569  170.3182 C.3     1  UNL1        0.1629
     25 O         141.5571  143.3877  170.6789 O.3     1  UNL1       -0.3519
     26 C         143.0149  143.0933  170.4835 C.3     1  UNL1        0.1437
     27 C         143.4444  141.7681  169.9273 C.3     1  UNL1        0.0493
     28 C         142.4161  140.7373  169.5665 C.3     1  UNL1        0.0740
     29 N         142.8456  139.4121  169.0103 N.3     1  UNL1       -0.3207
     30 H         142.0228  138.8391  168.8231 H       1  UNL1        0.1189
     31 H         143.4438  138.9373  169.6865 H       1  UNL1        0.1189
@<TRIPOS>BOND
     1    14    15    1
     2    15    16   ar
     3    16    17   ar
     4    17    18   ar
     5    18    19   ar
     6    19    12    1
     7    12     1    1
     8     1     2   ar
     9     2     3   ar
    10     3    21    1
    11    23    21    1
    12    23    24    1
    13    24    25    1
    14    25    26    1
    15    26    27    1
    16    27    28    1
    17    28    29    1
    18     3     4   ar
    19     4     5   ar
    20     5     6   ar
    21     6     7    1
    22     7     8   am
    23     7     9    2
    24    19    20   ar
    25    20    15   ar
    26     6     1   ar
    27    28    23    1
    28    12    13    1
    29    21    22    1
    30    29    30    1
    31    29    31    1
    32     8    10    1
    33     8    11    1
@<TRIPOS>MOLECULE
*****
 31 33 0 0 0
SMALL
GASTEIGER

@<TRIPOS>ATOM
      1 C         141.0575  141.9341  167.0407 C.ar    1  UNL1        0.1409
      2 N         140.0577  141.0802  166.3186 N.ar    1  UNL1       -0.1986
      3 C         139.2880  140.0319  167.0661 C.ar    1  UNL1        0.2181
      4 N         139.5179  139.8376  168.5356 N.ar    1  UNL1       -0.2120
      5 C         140.5177  140.6915  169.2576 C.ar    1  UNL1        0.1091
      6 C         141.2874  141.7398  168.5102 C.ar    1  UNL1        0.1040
      7 C         142.2871  142.5937  169.2322 C.2     1  UNL1        0.2470
      8 N         141.8689  143.3806  170.4388 N.am    1  UNL1       -0.3252
      9 O         143.7052  142.6607  168.7477 O.2     1  UNL1       -0.2702
     10 H         140.9382  143.3366  170.7568 H       1  UNL1        0.1453
     11 H         142.5250  143.9411  170.9127 H       1  UNL1        0.1453
     12 N         141.8272  142.9823  166.2933 N.pl3   1  UNL1       -0.2977
     13 H         141.6068  143.9343  166.4135 H       1  UNL1        0.1536
     14 C         145.0465  139.3525  164.4331 C.3     1  UNL1        0.0311
     15 C         144.5424  140.7652  164.4325 C.ar    1  UNL1       -0.0206
     16 C         145.1438  141.7758  163.5014 C.ar    1  UNL1       -0.0042
     17 C         144.6397  143.1885  163.5009 C.ar    1  UNL1        0.0009
     18 C         143.5342  143.5907  164.4315 C.ar    1  UNL1        0.0146
     19 C         142.9328  142.5802  165.3626 C.ar    1  UNL1        0.0491
     20 C         143.4369  141.1674  165.3631 C.ar    1  UNL1        0.0104
     21 N         138.2882  139.1779  166.3441 N.pl3   1  UNL1       -0.3009
     22 H         137.5334  138.7810  166.8360 H       1  UNL1        0.1497
     23 C         138.4386  138.9288  164.8725 C.3     1  UNL1        0.1155
     24 C         139.0435  137.6448  164.3872 C.3     1  UNL1        0.1629
     25 O         139.1938  137.3956  162.9157 O.3     1  UNL1       -0.3519
     26 C         138.7393  138.4305  161.9295 C.3     1  UNL1        0.1437
     27 C         138.1344  139.7145  162.4149 C.3     1  UNL1        0.0493
     28 C         137.9840  139.9636  163.8863 C.3     1  UNL1        0.0740
     29 N         137.3791  141.2476  164.3717 N.3     1  UNL1       -0.3207
     30 H         137.3546  141.2478  165.3914 H       1  UNL1        0.1189
     31 H         136.4299  141.3348  164.0088 H       1  UNL1        0.1189
@<TRIPOS>BOND
     1    14    15    1
     2    15    16   ar
     3    16    17   ar
     4    17    18   ar
     5    18    19   ar
     6    19    12    1
     7    12     1    1
     8     1     2   ar
     9     2     3   ar
    10     3    21    1
    11    23    21    1
    12    23    24    1
    13    24    25    1
    14    25    26    1
    15    26    27    1
    16    27    28    1
    17    28    29    1
    18     3     4   ar
    19     4     5   ar
    20     5     6   ar
    21     6     7    1
    22     7     8   am
    23     7     9    2
    24    19    20   ar
    25    20    15   ar
    26     6     1   ar
    27    28    23    1
    28    12    13    1
    29    21    22    1
    30    29    30    1
    31    29    31    1
    32     8    10    1
    33     8    11    1
@<TRIPOS>MOLECULE
*****
 31 33 0 0 0
SMALL
GASTEIGER

@<TRIPOS>ATOM
      1 C         141.0106  139.2338  166.4587 C.ar    1  UNL1        0.1409
      2 N         140.6671  138.4866  165.2042 N.ar    1  UNL1       -0.1986
      3 C         139.2327  138.2047  164.8680 C.ar    1  UNL1        0.2181
      4 N         138.1418  138.6699  165.7864 N.ar    1  UNL1       -0.2120
      5 C         138.4852  139.4171  167.0409 C.ar    1  UNL1        0.1091
      6 C         139.9196  139.6991  167.3770 C.ar    1  UNL1        0.1040
      7 C         140.2630  140.4463  168.6315 C.2     1  UNL1        0.2470
      8 N         139.8121  139.9234  169.9631 N.am    1  UNL1       -0.3252
      9 O         141.0574  141.7164  168.5543 O.2     1  UNL1       -0.2702
     10 H         139.2908  139.0898  170.0138 H       1  UNL1        0.1453
     11 H         140.0376  140.4138  170.7865 H       1  UNL1        0.1453
     12 N         142.4449  139.5158  166.7948 N.pl3   1  UNL1       -0.2977
     13 H         142.8147  139.2230  167.6590 H       1  UNL1        0.1536
     14 C         144.2004  143.9713  164.7782 C.3     1  UNL1        0.0311
     15 C         144.1937  142.4716  164.8060 C.ar    1  UNL1       -0.0206
     16 C         145.0579  141.6999  163.8534 C.ar    1  UNL1       -0.0042
     17 C         145.0511  140.2002  163.8812 C.ar    1  UNL1        0.0009
     18 C         144.1802  139.4721  164.8616 C.ar    1  UNL1        0.0146
     19 C         143.3160  140.2438  165.8143 C.ar    1  UNL1        0.0491
     20 C         143.3227  141.7436  165.7865 C.ar    1  UNL1        0.0104
     21 N         138.8892  137.4575  163.6136 N.pl3   1  UNL1       -0.3009
     22 H         138.5307  136.5422  163.6683 H       1  UNL1        0.1497
     23 C         139.0921  138.1048  162.2757 C.3     1  UNL1        0.1155
     24 C         137.9660  138.8532  161.6262 C.3     1  UNL1        0.1629
     25 O         138.1688  139.5005  160.2883 O.3     1  UNL1       -0.3519
     26 C         139.4977  139.3995  159.6000 C.3     1  UNL1        0.1437
     27 C         140.6238  138.6511  160.2495 C.3     1  UNL1        0.0493
     28 C         140.4210  138.0038  161.5874 C.3     1  UNL1        0.0740
     29 N         141.5471  137.2554  162.2369 N.3     1  UNL1       -0.3207
     30 H         141.2353  136.8836  163.1341 H       1  UNL1        0.1189
     31 H         142.3340  137.8871  162.3856 H       1  UNL1        0.1189
@<TRIPOS>BOND
     1    14    15    1
     2    15    16   ar
     3    16    17   ar
     4    17    18   ar
     5    18    19   ar
     6    19    12    1
     7    12     1    1
     8     1     2   ar
     9     2     3   ar
    10     3    21    1
    11    23    21    1
    12    23    24    1
    13    24    25    1
    14    25    26    1
    15    26    27    1
    16    27    28    1
    17    28    29    1
    18     3     4   ar
    19     4     5   ar
    20     5     6   ar
    21     6     7    1
    22     7     8   am
    23     7     9    2
    24    19    20   ar
    25    20    15   ar
    26     6     1   ar
    27    28    23    1
    28    12    13    1
    29    21    22    1
    30    29    30    1
    31    29    31    1
    32     8    10    1
    33     8    11    1
@<TRIPOS>MOLECULE
*****
 31 33 0 0 0
SMALL
GASTEIGER

@<TRIPOS>ATOM
      1 C         140.9595  139.8527  164.9897 C.ar    1  UNL1        0.1409
      2 N         141.0592  140.1069  166.4647 N.ar    1  UNL1       -0.1986
      3 C         142.1919  139.5182  167.2523 C.ar    1  UNL1        0.2181
      4 N         143.2249  138.6752  166.5651 N.ar    1  UNL1       -0.2120
      5 C         143.1252  138.4210  165.0902 C.ar    1  UNL1        0.1091
      6 C         141.9925  139.0096  164.3025 C.ar    1  UNL1        0.1040
      7 C         141.8928  138.7554  162.8276 C.2     1  UNL1        0.2470
      8 N         142.0341  137.3600  162.2958 N.am    1  UNL1       -0.3252
      9 O         141.6517  139.8966  161.8844 O.2     1  UNL1       -0.2702
     10 H         142.1924  136.6110  162.9149 H       1  UNL1        0.1453
     11 H         141.9687  137.1931  161.3278 H       1  UNL1        0.1453
     12 N         139.8268  140.4413  164.2021 N.pl3   1  UNL1       -0.2977
     13 H         139.2469  139.8572  163.6620 H       1  UNL1        0.1536
     14 C         141.5763  145.3119  163.7361 C.3     1  UNL1        0.0311
     15 C         140.4524  144.3554  164.0043 C.ar    1  UNL1       -0.0206
     16 C         139.0794  144.8776  164.3078 C.ar    1  UNL1       -0.0042
     17 C         137.9555  143.9210  164.5760 C.ar    1  UNL1        0.0009
     18 C         138.2046  142.4423  164.5407 C.ar    1  UNL1        0.0146
     19 C         139.5776  141.9201  164.2373 C.ar    1  UNL1        0.0491
     20 C         140.7015  142.8767  163.9691 C.ar    1  UNL1        0.0104
     21 N         142.2916  139.7725  168.7273 N.pl3   1  UNL1       -0.3009
     22 H         142.8847  139.2174  169.2835 H       1  UNL1        0.1497
     23 C         141.4876  140.8725  169.3547 C.3     1  UNL1        0.1155
     24 C         140.1475  140.5718  169.9577 C.3     1  UNL1        0.1629
     25 O         139.3434  141.6718  170.5851 O.3     1  UNL1       -0.3519
     26 C         139.8796  143.0724  170.6096 C.3     1  UNL1        0.1437
     27 C         141.2199  143.3731  170.0066 C.3     1  UNL1        0.0493
     28 C         142.0238  142.2731  169.3792 C.3     1  UNL1        0.0740
     29 N         143.3640  142.5738  168.7762 N.3     1  UNL1       -0.3207
     30 H         143.7669  141.7163  168.3983 H       1  UNL1        0.1189
     31 H         143.9823  142.9526  169.4936 H       1  UNL1        0.1189
@<TRIPOS>BOND
     1    14    15    1
     2    15    16   ar
     3    16    17   ar
     4    17    18   ar
     5    18    19   ar
     6    19    12    1
     7    12     1    1
     8     1     2   ar
     9     2     3   ar
    10     3    21    1
    11    23    21    1
    12    23    24    1
    13    24    25    1
    14    25    26    1
    15    26    27    1
    16    27    28    1
    17    28    29    1
    18     3     4   ar
    19     4     5   ar
    20     5     6   ar
    21     6     7    1
    22     7     8   am
    23     7     9    2
    24    19    20   ar
    25    20    15   ar
    26     6     1   ar
    27    28    23    1
    28    12    13    1
    29    21    22    1
    30    29    30    1
    31    29    31    1
    32     8    10    1
    33     8    11    1
@<TRIPOS>MOLECULE
*****
 31 33 0 0 0
SMALL
GASTEIGER

@<TRIPOS>ATOM
      1 C         140.7260  141.7226  166.7265 C.ar    1  UNL1        0.1409
      2 N         141.8682  142.3306  165.9678 N.ar    1  UNL1       -0.1986
      3 C         143.1625  142.6225  166.6677 C.ar    1  UNL1        0.2181
      4 N         143.3145  142.3064  168.1260 N.ar    1  UNL1       -0.2120
      5 C         142.1723  141.6984  168.8847 C.ar    1  UNL1        0.1091
      6 C         140.8780  141.4065  168.1850 C.ar    1  UNL1        0.1040
      7 C         139.7358  140.7985  168.9436 C.2     1  UNL1        0.2470
      8 N         139.2867  141.4077  170.2386 N.am    1  UNL1       -0.3252
      9 O         139.0426  139.5811  168.4072 O.2     1  UNL1       -0.2702
     10 H         139.7416  142.2067  170.5907 H       1  UNL1        0.1453
     11 H         138.5370  141.0087  170.7366 H       1  UNL1        0.1453
     12 N         139.4317  141.4306  166.0268 N.pl3   1  UNL1       -0.2977
     13 H         138.6378  141.9833  166.2095 H       1  UNL1        0.1536
     14 C         141.1614  136.8500  164.2871 C.3     1  UNL1        0.0311
     15 C         140.2120  138.0063  164.1788 C.ar    1  UNL1       -0.0206
     16 C         139.1781  138.0285  163.0923 C.ar    1  UNL1       -0.0042
     17 C         138.2287  139.1847  162.9840 C.ar    1  UNL1        0.0009
     18 C         138.3132  140.3188  163.9621 C.ar    1  UNL1        0.0146
     19 C         139.3472  140.2965  165.0486 C.ar    1  UNL1        0.0491
     20 C         140.2965  139.1403  165.1569 C.ar    1  UNL1        0.0104
     21 N         144.3048  143.2305  165.9090 N.pl3   1  UNL1       -0.3009
     22 H         144.9420  143.8229  166.3698 H       1  UNL1        0.1497
     23 C         144.4762  142.9361  164.4482 C.3     1  UNL1        0.1155
     24 C         145.4187  141.8561  164.0063 C.3     1  UNL1        0.1629
     25 O         145.5901  141.5616  162.5455 O.3     1  UNL1       -0.3519
     26 C         144.8189  142.3471  161.5265 C.3     1  UNL1        0.1437
     27 C         143.8763  143.4271  161.9685 C.3     1  UNL1        0.0493
     28 C         143.7050  143.7216  163.4292 C.3     1  UNL1        0.0740
     29 N         142.7624  144.8016  163.8711 N.3     1  UNL1       -0.3207
     30 H         142.7708  144.8646  164.8892 H       1  UNL1        0.1189
     31 H         141.8190  144.5811  163.5519 H       1  UNL1        0.1189
@<TRIPOS>BOND
     1    14    15    1
     2    15    16   ar
     3    16    17   ar
     4    17    18   ar
     5    18    19   ar
     6    19    12    1
     7    12     1    1
     8     1     2   ar
     9     2     3   ar
    10     3    21    1
    11    23    21    1
    12    23    24    1
    13    24    25    1
    14    25    26    1
    15    26    27    1
    16    27    28    1
    17    28    29    1
    18     3     4   ar
    19     4     5   ar
    20     5     6   ar
    21     6     7    1
    22     7     8   am
    23     7     9    2
    24    19    20   ar
    25    20    15   ar
    26     6     1   ar
    27    28    23    1
    28    12    13    1
    29    21    22    1
    30    29    30    1
    31    29    31    1
    32     8    10    1
    33     8    11    1
@<TRIPOS>MOLECULE
*****
 31 33 0 0 0
SMALL
GASTEIGER

@<TRIPOS>ATOM
      1 C         141.7966  142.5728  164.8977 C.ar    1  UNL1        0.1409
      2 N         142.1391  142.2928  166.3310 N.ar    1  UNL1       -0.1986
      3 C         143.4417  142.7736  166.8985 C.ar    1  UNL1        0.2181
      4 N         144.4018  143.5343  166.0328 N.ar    1  UNL1       -0.2120
      5 C         144.0594  143.8142  164.5995 C.ar    1  UNL1        0.1091
      6 C         142.7568  143.3335  164.0320 C.ar    1  UNL1        0.1040
      7 C         142.4144  143.6135  162.5987 C.2     1  UNL1        0.2470
      8 N         142.7014  144.9624  162.0087 N.am    1  UNL1       -0.3252
      9 O         141.7849  142.5445  161.7553 O.2     1  UNL1       -0.2702
     10 H         143.1145  145.6639  162.5621 H       1  UNL1        0.1453
     11 H         142.4766  145.1461  161.0679 H       1  UNL1        0.1453
     12 N         140.4941  142.0920  164.3301 N.pl3   1  UNL1       -0.2977
     13 H         139.9793  142.6697  163.7214 H       1  UNL1        0.1536
     14 C         141.0363  136.9242  164.3248 C.3     1  UNL1        0.0311
     15 C         140.2470  138.1472  164.6872 C.ar    1  UNL1       -0.0206
     16 C         138.9396  138.0093  165.4094 C.ar    1  UNL1       -0.0042
     17 C         138.1503  139.2323  165.7718 C.ar    1  UNL1        0.0009
     18 C         138.6685  140.5932  165.4120 C.ar    1  UNL1        0.0146
     19 C         139.9759  140.7311  164.6899 C.ar    1  UNL1        0.0491
     20 C         140.7652  139.5081  164.3275 C.ar    1  UNL1        0.0104
     21 N         143.7842  142.4936  168.3318 N.pl3   1  UNL1       -0.3009
     22 H         144.7051  142.6277  168.6532 H       1  UNL1        0.1497
     23 C         142.7236  142.0092  169.2755 C.3     1  UNL1        0.1155
     24 C         142.0760  142.9667  170.2314 C.3     1  UNL1        0.1629
     25 O         141.0153  142.4823  171.1751 O.3     1  UNL1       -0.3519
     26 C         140.6024  141.0403  171.1629 C.3     1  UNL1        0.1437
     27 C         141.2501  140.0827  170.2070 C.3     1  UNL1        0.0493
     28 C         142.3106  140.5672  169.2633 C.3     1  UNL1        0.0740
     29 N         142.9583  139.6096  168.3074 N.3     1  UNL1       -0.3207
     30 H         143.6505  140.1056  167.7460 H       1  UNL1        0.1189
     31 H         142.2483  139.2081  167.6950 H       1  UNL1        0.1189
@<TRIPOS>BOND
     1    14    15    1
     2    15    16   ar
     3    16    17   ar
     4    17    18   ar
     5    18    19   ar
     6    19    12    1
     7    12     1    1
     8     1     2   ar
     9     2     3   ar
    10     3    21    1
    11    23    21    1
    12    23    24    1
    13    24    25    1
    14    25    26    1
    15    26    27    1
    16    27    28    1
    17    28    29    1
    18     3     4   ar
    19     4     5   ar
    20     5     6   ar
    21     6     7    1
    22     7     8   am
    23     7     9    2
    24    19    20   ar
    25    20    15   ar
    26     6     1   ar
    27    28    23    1
    28    12    13    1
    29    21    22    1
    30    29    30    1
    31    29    31    1
    32     8    10    1
    33     8    11    1
@<TRIPOS>MOLECULE
*****
 31 33 0 0 0
SMALL
GASTEIGER

@<TRIPOS>ATOM
      1 C         139.0437  139.4312  160.0080 C.ar    1  UNL1        0.1409
      2 N         138.4580  140.5899  160.7592 N.ar    1  UNL1       -0.1986
      3 C         138.3983  141.9454  160.1195 C.ar    1  UNL1        0.2181
      4 N         138.9242  142.1420  158.7286 N.ar    1  UNL1       -0.2120
      5 C         139.5099  140.9833  157.9774 C.ar    1  UNL1        0.1091
      6 C         139.5696  139.6279  158.6171 C.ar    1  UNL1        0.1040
      7 C         140.1553  138.4692  157.8659 C.2     1  UNL1        0.2470
      8 N         141.5930  138.0928  158.0696 N.am    1  UNL1       -0.3252
      9 O         139.3033  137.6867  156.9109 O.2     1  UNL1       -0.2702
     10 H         142.1522  138.6064  158.6964 H       1  UNL1        0.1453
     11 H         141.9774  137.3323  157.5766 H       1  UNL1        0.1453
     12 N         139.1034  138.0757  160.6477 N.pl3   1  UNL1       -0.2977
     13 H         138.7648  137.2879  160.1642 H       1  UNL1        0.1536
     14 C         138.4438  137.7670  165.7926 C.3     1  UNL1        0.0311
     15 C         139.3491  137.7664  164.5967 C.ar    1  UNL1       -0.0206
     16 C         140.8300  137.6107  164.7772 C.ar    1  UNL1       -0.0042
     17 C         141.7354  137.6101  163.5812 C.ar    1  UNL1        0.0009
     18 C         141.1599  137.7651  162.2048 C.ar    1  UNL1        0.0146
     19 C         139.6790  137.9207  162.0242 C.ar    1  UNL1        0.0491
     20 C         138.7736  137.9214  163.2202 C.ar    1  UNL1        0.0104
     21 N         137.8126  143.1041  160.8707 N.pl3   1  UNL1       -0.3009
     22 H         137.1392  143.6795  160.4409 H       1  UNL1        0.1497
     23 C         138.2529  143.3860  162.2766 C.3     1  UNL1        0.1155
     24 C         139.2171  144.5018  162.5511 C.3     1  UNL1        0.1629
     25 O         139.6574  144.7837  163.9571 O.3     1  UNL1       -0.3519
     26 C         139.1334  143.9499  165.0885 C.3     1  UNL1        0.1437
     27 C         138.1692  142.8341  164.8140 C.3     1  UNL1        0.0493
     28 C         137.7289  142.5522  163.4081 C.3     1  UNL1        0.0740
     29 N         136.7646  141.4365  163.1336 N.3     1  UNL1       -0.3207
     30 H         136.5770  141.3879  162.1322 H       1  UNL1        0.1189
     31 H         135.8932  141.6092  163.6347 H       1  UNL1        0.1189
@<TRIPOS>BOND
     1    14    15    1
     2    15    16   ar
     3    16    17   ar
     4    17    18   ar
     5    18    19   ar
     6    19    12    1
     7    12     1    1
     8     1     2   ar
     9     2     3   ar
    10     3    21    1
    11    23    21    1
    12    23    24    1
    13    24    25    1
    14    25    26    1
    15    26    27    1
    16    27    28    1
    17    28    29    1
    18     3     4   ar
    19     4     5   ar
    20     5     6   ar
    21     6     7    1
    22     7     8   am
    23     7     9    2
    24    19    20   ar
    25    20    15   ar
    26     6     1   ar
    27    28    23    1
    28    12    13    1
    29    21    22    1
    30    29    30    1
    31    29    31    1
    32     8    10    1
    33     8    11    1
