@<TRIPOS>MOLECULE
*****
 22 25 0 0 0
SMALL
GASTEIGER

@<TRIPOS>ATOM
      1 C         140.3364  140.3319  163.7210 C.3     1  UNL1        0.0841
      2 C         139.3243  140.9950  164.6074 C.3     1  UNL1        0.0376
      3 C         139.7442  141.5641  165.9303 C.3     1  UNL1        0.0738
      4 N         141.1762  141.4699  166.3667 N.3     1  UNL1       -0.2738
      5 C         142.1883  140.8068  165.4802 C.3     1  UNL1        0.0738
      6 C         141.7685  140.2377  164.1574 C.3     1  UNL1        0.0376
      7 O         140.3885  137.1775  162.8863 O.2     1  UNL1       -0.2501
      8 C         139.9404  138.3129  162.0145 C.2     1  UNL1        0.3309
      9 N         139.4377  138.1978  160.6060 N.am    1  UNL1       -0.1647
     10 C         139.1030  139.5766  160.1191 C.2     1  UNL1        0.0706
     11 C         138.5671  140.0763  158.8103 C.3     1  UNL1        0.0705
     12 C         138.3270  141.5432  158.6091 C.2     1  UNL1       -0.0199
     13 C         138.6229  142.5104  159.7168 C.2     1  UNL1       -0.0029
     14 C         139.1589  142.0107  161.0256 C.2     1  UNL1        0.0156
     15 C         139.3989  140.5438  161.2267 C.2     1  UNL1        0.0668
     16 N         139.9165  139.7628  162.3981 N.am    1  UNL1       -0.2423
     17 C         141.5961  142.0390  167.6895 C.3     1  UNL1        0.0575
     18 C         140.6208  142.8313  168.5087 C.3     1  UNL1        0.0160
     19 C         141.0408  143.4003  169.8315 C.3     1  UNL1        0.0014
     20 C         142.4359  143.1770  170.3351 C.3     1  UNL1        0.0001
     21 C         143.4112  142.3847  169.5160 C.3     1  UNL1        0.0014
     22 C         142.9912  141.8156  168.1931 C.3     1  UNL1        0.0160
@<TRIPOS>BOND
     1     7     8    2
     2     8     9    1
     3     9    10    2
     4    10    11    1
     5    11    12    1
     6    12    13    2
     7    13    14    1
     8    14    15    2
     9    15    16    1
    10    16     1    1
    11     1     2    1
    12     2     3    1
    13     3     4    1
    14     4    17    1
    15    17    18    1
    16    18    19    1
    17    19    20    1
    18    20    21    1
    19    21    22    1
    20     4     5    1
    21     5     6    1
    22    16     8   am
    23     6     1    1
    24    15    10    1
    25    22    17    1
@<TRIPOS>MOLECULE
*****
 22 25 0 0 0
SMALL
GASTEIGER

@<TRIPOS>ATOM
      1 C         140.0938  139.2627  165.1631 C.3     1  UNL1        0.0841
      2 C         140.2835  137.8624  164.6602 C.3     1  UNL1        0.0376
      3 C         140.5527  137.6181  163.2049 C.3     1  UNL1        0.0738
      4 N         140.6321  138.7742  162.2525 N.3     1  UNL1       -0.2738
      5 C         140.4423  140.1746  162.7553 C.3     1  UNL1        0.0738
      6 C         140.1732  140.4189  164.2106 C.3     1  UNL1        0.0376
      7 O         137.3401  138.5303  166.7539 O.2     1  UNL1       -0.2501
      8 C         138.5589  139.1704  167.3496 C.2     1  UNL1        0.3309
      9 N         138.7261  139.5862  168.7811 N.am    1  UNL1       -0.1647
     10 C         140.0950  140.1798  168.9346 C.2     1  UNL1        0.0706
     11 C         140.8110  140.7586  170.1188 C.3     1  UNL1        0.0705
     12 C         142.2060  141.2884  169.9663 C.2     1  UNL1       -0.0199
     13 C         142.8850  141.2395  168.6297 C.2     1  UNL1       -0.0029
     14 C         142.1690  140.6607  167.4455 C.2     1  UNL1        0.0156
     15 C         140.7740  140.1309  167.5980 C.2     1  UNL1        0.0668
     16 N         139.8246  139.5070  166.6184 N.am    1  UNL1       -0.2423
     17 C         140.9012  138.5299  160.7972 C.3     1  UNL1        0.0575
     18 C         142.2859  138.1798  160.3390 C.3     1  UNL1        0.0160
     19 C         142.5550  137.9355  158.8836 C.3     1  UNL1        0.0014
     20 C         141.4394  138.0413  157.8866 C.3     1  UNL1        0.0001
     21 C         140.0546  138.3913  158.3448 C.3     1  UNL1        0.0014
     22 C         139.7856  138.6356  159.8001 C.3     1  UNL1        0.0160
@<TRIPOS>BOND
     1     7     8    2
     2     8     9    1
     3     9    10    2
     4    10    11    1
     5    11    12    1
     6    12    13    2
     7    13    14    1
     8    14    15    2
     9    15    16    1
    10    16     1    1
    11     1     2    1
    12     2     3    1
    13     3     4    1
    14     4    17    1
    15    17    18    1
    16    18    19    1
    17    19    20    1
    18    20    21    1
    19    21    22    1
    20     4     5    1
    21     5     6    1
    22    16     8   am
    23     6     1    1
    24    15    10    1
    25    22    17    1
@<TRIPOS>MOLECULE
*****
 22 25 0 0 0
SMALL
GASTEIGER

@<TRIPOS>ATOM
      1 C         140.0891  139.2599  165.1566 C.3     1  UNL1        0.0841
      2 C         140.2303  140.4193  164.2155 C.3     1  UNL1        0.0376
      3 C         140.4971  140.1755  162.7597 C.3     1  UNL1        0.0738
      4 N         140.6228  138.7723  162.2449 N.3     1  UNL1       -0.2738
      5 C         140.4817  137.6128  163.1860 C.3     1  UNL1        0.0738
      6 C         140.2149  137.8565  164.6418 C.3     1  UNL1        0.0376
      7 O         137.3331  138.5390  166.7485 O.2     1  UNL1       -0.2501
      8 C         138.5555  139.1723  167.3441 C.2     1  UNL1        0.3309
      9 N         138.7257  139.5854  168.7760 N.am    1  UNL1       -0.1647
     10 C         140.0977  140.1721  168.9292 C.2     1  UNL1        0.0706
     11 C         140.8174  140.7458  170.1136 C.3     1  UNL1        0.0705
     12 C         142.2149  141.2689  169.9608 C.2     1  UNL1       -0.0199
     13 C         142.8926  141.2183  168.6236 C.2     1  UNL1       -0.0029
     14 C         142.1729  140.6447  167.4392 C.2     1  UNL1        0.0156
     15 C         140.7754  140.1215  167.5920 C.2     1  UNL1        0.0668
     16 N         139.8223  139.5036  166.6124 N.am    1  UNL1       -0.2423
     17 C         140.8897  138.5285  160.7891 C.3     1  UNL1        0.0575
     18 C         139.7696  138.6203  159.7956 C.3     1  UNL1        0.0160
     19 C         140.0366  138.3765  158.3398 C.3     1  UNL1        0.0014
     20 C         141.4235  138.0410  157.8776 C.3     1  UNL1        0.0001
     21 C         142.5436  137.9492  158.8710 C.3     1  UNL1        0.0014
     22 C         142.2767  138.1930  160.3268 C.3     1  UNL1        0.0160
@<TRIPOS>BOND
     1     7     8    2
     2     8     9    1
     3     9    10    2
     4    10    11    1
     5    11    12    1
     6    12    13    2
     7    13    14    1
     8    14    15    2
     9    15    16    1
    10    16     1    1
    11     1     2    1
    12     2     3    1
    13     3     4    1
    14     4    17    1
    15    17    18    1
    16    18    19    1
    17    19    20    1
    18    20    21    1
    19    21    22    1
    20     4     5    1
    21     5     6    1
    22    16     8   am
    23     6     1    1
    24    15    10    1
    25    22    17    1
@<TRIPOS>MOLECULE
*****
 22 25 0 0 0
SMALL
GASTEIGER

@<TRIPOS>ATOM
      1 C         139.2680  141.8818  164.0767 C.3     1  UNL1        0.0841
      2 C         140.1183  142.9398  164.7151 C.3     1  UNL1        0.0376
      3 C         140.5095  142.8182  166.1581 C.3     1  UNL1        0.0738
      4 N         140.0504  141.6385  166.9627 N.3     1  UNL1       -0.2738
      5 C         139.2001  140.5804  166.3244 C.3     1  UNL1        0.0738
      6 C         138.8089  140.7020  164.8814 C.3     1  UNL1        0.0376
      7 O         137.7557  144.4289  162.7074 O.2     1  UNL1       -0.2501
      8 C         138.1817  143.1742  162.0044 C.2     1  UNL1        0.3309
      9 N         137.9874  142.8699  160.5485 N.am    1  UNL1       -0.1647
     10 C         138.5624  141.5111  160.2780 C.2     1  UNL1        0.0706
     11 C         138.6565  140.6924  159.0248 C.3     1  UNL1        0.0705
     12 C         139.3002  139.3380  159.0603 C.2     1  UNL1       -0.0199
     13 C         139.8499  138.8025  160.3492 C.2     1  UNL1       -0.0029
     14 C         139.7559  139.6213  161.6024 C.2     1  UNL1        0.0156
     15 C         139.1121  140.9756  161.5668 C.2     1  UNL1        0.0668
     16 N         138.8768  142.0034  162.6337 N.am    1  UNL1       -0.2423
     17 C         140.4415  141.5168  168.4057 C.3     1  UNL1        0.0575
     18 C         139.9075  140.3867  169.2349 C.3     1  UNL1        0.0160
     19 C         140.2987  140.2651  170.6779 C.3     1  UNL1        0.0014
     20 C         141.2240  141.2737  171.2916 C.3     1  UNL1        0.0001
     21 C         141.7580  142.4039  170.4624 C.3     1  UNL1        0.0014
     22 C         141.3668  142.5254  169.0194 C.3     1  UNL1        0.0160
@<TRIPOS>BOND
     1     7     8    2
     2     8     9    1
     3     9    10    2
     4    10    11    1
     5    11    12    1
     6    12    13    2
     7    13    14    1
     8    14    15    2
     9    15    16    1
    10    16     1    1
    11     1     2    1
    12     2     3    1
    13     3     4    1
    14     4    17    1
    15    17    18    1
    16    18    19    1
    17    19    20    1
    18    20    21    1
    19    21    22    1
    20     4     5    1
    21     5     6    1
    22    16     8   am
    23     6     1    1
    24    15    10    1
    25    22    17    1
@<TRIPOS>MOLECULE
*****
 22 25 0 0 0
SMALL
GASTEIGER

@<TRIPOS>ATOM
      1 C         140.7790  143.6087  162.7821 C.3     1  UNL1        0.0841
      2 C         139.5172  142.8743  163.1259 C.3     1  UNL1        0.0376
      3 C         139.3198  142.3290  164.5093 C.3     1  UNL1        0.0738
      4 N         140.3844  142.5182  165.5489 N.3     1  UNL1       -0.2738
      5 C         141.6463  143.2526  165.2052 C.3     1  UNL1        0.0738
      6 C         141.8436  143.7979  163.8218 C.3     1  UNL1        0.0376
      7 O         139.1773  146.1298  161.4674 O.2     1  UNL1       -0.2501
      8 C         140.2402  145.3128  160.7944 C.2     1  UNL1        0.3309
      9 N         140.7534  145.5111  159.3990 N.am    1  UNL1       -0.1647
     10 C         141.8068  144.4749  159.1408 C.2     1  UNL1        0.0706
     11 C         142.6583  144.1867  157.9401 C.3     1  UNL1        0.0705
     12 C         143.6475  143.0598  157.9752 C.2     1  UNL1       -0.0199
     13 C         143.7853  142.2210  159.2111 C.2     1  UNL1       -0.0029
     14 C         142.9339  142.5092  160.4119 C.2     1  UNL1        0.0156
     15 C         141.9446  143.6361  160.3767 C.2     1  UNL1        0.0668
     16 N         140.9764  144.1540  161.3987 N.am    1  UNL1       -0.2423
     17 C         140.1870  141.9729  166.9323 C.3     1  UNL1        0.0575
     18 C         140.5054  142.8234  168.1262 C.3     1  UNL1        0.0160
     19 C         140.3080  142.2780  169.5095 C.3     1  UNL1        0.0014
     20 C         139.7923  140.8823  169.6990 C.3     1  UNL1        0.0001
     21 C         139.4740  140.0318  168.5051 C.3     1  UNL1        0.0014
     22 C         139.6714  140.5772  167.1217 C.3     1  UNL1        0.0160
@<TRIPOS>BOND
     1     7     8    2
     2     8     9    1
     3     9    10    2
     4    10    11    1
     5    11    12    1
     6    12    13    2
     7    13    14    1
     8    14    15    2
     9    15    16    1
    10    16     1    1
    11     1     2    1
    12     2     3    1
    13     3     4    1
    14     4    17    1
    15    17    18    1
    16    18    19    1
    17    19    20    1
    18    20    21    1
    19    21    22    1
    20     4     5    1
    21     5     6    1
    22    16     8   am
    23     6     1    1
    24    15    10    1
    25    22    17    1
@<TRIPOS>MOLECULE
*****
 22 25 0 0 0
SMALL
GASTEIGER

@<TRIPOS>ATOM
      1 C         140.1773  142.1638  163.7427 C.3     1  UNL1        0.0841
      2 C         140.8051  140.8200  163.9654 C.3     1  UNL1        0.0376
      3 C         141.3693  140.4693  165.3103 C.3     1  UNL1        0.0738
      4 N         141.3057  141.4626  166.4325 N.3     1  UNL1       -0.2738
      5 C         140.6778  142.8065  166.2098 C.3     1  UNL1        0.0738
      6 C         140.1136  143.1572  164.8649 C.3     1  UNL1        0.0376
      7 O         137.0288  142.0436  162.8928 O.2     1  UNL1       -0.2501
      8 C         138.1659  142.4592  162.0072 C.2     1  UNL1        0.3309
      9 N         138.0554  142.8926  160.5754 N.am    1  UNL1       -0.1647
     10 C         139.4343  143.2157  160.0811 C.2     1  UNL1        0.0706
     11 C         139.9377  143.6924  158.7510 C.3     1  UNL1        0.0705
     12 C         141.4037  143.9355  158.5472 C.2     1  UNL1       -0.0199
     13 C         142.3664  143.7018  159.6736 C.2     1  UNL1       -0.0029
     14 C         141.8631  143.2251  161.0037 C.2     1  UNL1        0.0156
     15 C         140.3970  142.9820  161.2075 C.2     1  UNL1        0.0668
     16 N         139.6130  142.5145  162.3978 N.am    1  UNL1       -0.2423
     17 C         141.8699  141.1119  167.7774 C.3     1  UNL1        0.0575
     18 C         141.4541  139.8409  168.4570 C.3     1  UNL1        0.0160
     19 C         142.0184  139.4903  169.8019 C.3     1  UNL1        0.0014
     20 C         142.9983  140.4107  170.4671 C.3     1  UNL1        0.0001
     21 C         143.4141  141.6816  169.7876 C.3     1  UNL1        0.0014
     22 C         142.8498  142.0322  168.4427 C.3     1  UNL1        0.0160
@<TRIPOS>BOND
     1     7     8    2
     2     8     9    1
     3     9    10    2
     4    10    11    1
     5    11    12    1
     6    12    13    2
     7    13    14    1
     8    14    15    2
     9    15    16    1
    10    16     1    1
    11     1     2    1
    12     2     3    1
    13     3     4    1
    14     4    17    1
    15    17    18    1
    16    18    19    1
    17    19    20    1
    18    20    21    1
    19    21    22    1
    20     4     5    1
    21     5     6    1
    22    16     8   am
    23     6     1    1
    24    15    10    1
    25    22    17    1
@<TRIPOS>MOLECULE
*****
 22 25 0 0 0
SMALL
GASTEIGER

@<TRIPOS>ATOM
      1 C         141.3199  143.1036  163.8387 C.3     1  UNL1        0.0841
      2 C         140.1988  143.6483  164.6732 C.3     1  UNL1        0.0376
      3 C         140.0575  143.2278  166.1061 C.3     1  UNL1        0.0738
      4 N         141.0373  142.2625  166.7045 N.3     1  UNL1       -0.2738
      5 C         142.1584  141.7177  165.8701 C.3     1  UNL1        0.0738
      6 C         142.2997  142.1382  164.4372 C.3     1  UNL1        0.0376
      7 O         143.7863  144.8311  162.5809 O.2     1  UNL1       -0.2501
      8 C         142.5949  144.3181  161.8277 C.2     1  UNL1        0.3309
      9 N         142.3279  144.5091  160.3640 N.am    1  UNL1       -0.1647
     10 C         141.0292  143.8332  160.0376 C.2     1  UNL1        0.0706
     11 C         140.2653  143.6934  158.7543 C.3     1  UNL1        0.0705
     12 C         138.9657  142.9448  158.7330 C.2     1  UNL1       -0.0199
     13 C         138.4300  142.3360  159.9949 C.2     1  UNL1       -0.0029
     14 C         139.1939  142.4758  161.2781 C.2     1  UNL1        0.0156
     15 C         140.4936  143.2244  161.2995 C.2     1  UNL1        0.0668
     16 N         141.4612  143.5241  162.4058 N.am    1  UNL1       -0.2423
     17 C         140.8960  141.8420  168.1375 C.3     1  UNL1        0.0575
     18 C         140.5085  142.8486  169.1798 C.3     1  UNL1        0.0160
     19 C         140.3672  142.4280  170.6127 C.3     1  UNL1        0.0014
     20 C         140.6134  141.0009  171.0032 C.3     1  UNL1        0.0001
     21 C         141.0009  139.9942  169.9608 C.3     1  UNL1        0.0014
     22 C         141.1422  140.4148  168.5279 C.3     1  UNL1        0.0160
@<TRIPOS>BOND
     1     7     8    2
     2     8     9    1
     3     9    10    2
     4    10    11    1
     5    11    12    1
     6    12    13    2
     7    13    14    1
     8    14    15    2
     9    15    16    1
    10    16     1    1
    11     1     2    1
    12     2     3    1
    13     3     4    1
    14     4    17    1
    15    17    18    1
    16    18    19    1
    17    19    20    1
    18    20    21    1
    19    21    22    1
    20     4     5    1
    21     5     6    1
    22    16     8   am
    23     6     1    1
    24    15    10    1
    25    22    17    1
@<TRIPOS>MOLECULE
*****
 22 25 0 0 0
SMALL
GASTEIGER

@<TRIPOS>ATOM
      1 C         140.0407  141.6591  165.4500 C.3     1  UNL1        0.0841
      2 C         141.3922  141.5117  164.8164 C.3     1  UNL1        0.0376
      3 C         141.6771  142.1650  163.4965 C.3     1  UNL1        0.0738
      4 N         140.6105  142.9658  162.8102 N.3     1  UNL1       -0.2738
      5 C         139.2589  143.1132  163.4438 C.3     1  UNL1        0.0738
      6 C         138.9740  142.4599  164.7637 C.3     1  UNL1        0.0376
      7 O         138.2247  138.9880  165.9158 O.2     1  UNL1       -0.2501
      8 C         138.9211  139.7780  166.9840 C.2     1  UNL1        0.3309
      9 N         138.9050  139.4791  168.4538 N.am    1  UNL1       -0.1647
     10 C         139.7298  140.5220  169.1481 C.2     1  UNL1        0.0706
     11 C         140.0699  140.7344  170.5934 C.3     1  UNL1        0.0705
     12 C         140.9358  141.8904  170.9981 C.2     1  UNL1       -0.0199
     13 C         141.4617  142.8340  169.9573 C.2     1  UNL1       -0.0029
     14 C         141.1215  142.6216  168.5120 C.2     1  UNL1        0.0156
     15 C         140.2556  141.4656  168.1073 C.2     1  UNL1        0.0668
     16 N         139.7558  141.0058  166.7699 N.am    1  UNL1       -0.2423
     17 C         140.8954  143.6191  161.4904 C.3     1  UNL1        0.0575
     18 C         141.9968  143.0959  160.6168 C.3     1  UNL1        0.0160
     19 C         142.2817  143.7493  159.2970 C.3     1  UNL1        0.0014
     20 C         141.4651  144.9257  158.8507 C.3     1  UNL1        0.0001
     21 C         140.3637  145.4489  159.7243 C.3     1  UNL1        0.0014
     22 C         140.0788  144.7955  161.0442 C.3     1  UNL1        0.0160
@<TRIPOS>BOND
     1     7     8    2
     2     8     9    1
     3     9    10    2
     4    10    11    1
     5    11    12    1
     6    12    13    2
     7    13    14    1
     8    14    15    2
     9    15    16    1
    10    16     1    1
    11     1     2    1
    12     2     3    1
    13     3     4    1
    14     4    17    1
    15    17    18    1
    16    18    19    1
    17    19    20    1
    18    20    21    1
    19    21    22    1
    20     4     5    1
    21     5     6    1
    22    16     8   am
    23     6     1    1
    24    15    10    1
    25    22    17    1
@<TRIPOS>MOLECULE
*****
 22 25 0 0 0
SMALL
GASTEIGER

@<TRIPOS>ATOM
      1 C         142.7870  140.0020  162.9843 C.3     1  UNL1        0.0841
      2 C         141.3381  139.8730  163.3502 C.3     1  UNL1        0.0376
      3 C         140.9294  139.8336  164.7929 C.3     1  UNL1        0.0738
      4 N         141.9697  139.9231  165.8698 N.3     1  UNL1       -0.2738
      5 C         143.4187  140.0520  165.5040 C.3     1  UNL1        0.0738
      6 C         143.8274  140.0915  164.0613 C.3     1  UNL1        0.0376
      7 O         144.1267  137.5472  161.3024 O.2     1  UNL1       -0.2501
      8 C         143.8115  138.9131  160.7686 C.2     1  UNL1        0.3309
      9 N         144.0567  139.3905  159.3679 N.am    1  UNL1       -0.1647
     10 C         143.5925  140.8138  159.2753 C.2     1  UNL1        0.0706
     11 C         143.5856  141.7955  158.1412 C.3     1  UNL1        0.0705
     12 C         143.0465  143.1795  158.3506 C.2     1  UNL1       -0.0199
     13 C         142.5144  143.5818  159.6941 C.2     1  UNL1       -0.0029
     14 C         142.5213  142.6001  160.8282 C.2     1  UNL1        0.0156
     15 C         143.0603  141.2161  160.6188 C.2     1  UNL1        0.0668
     16 N         143.1957  140.0414  161.5416 N.am    1  UNL1       -0.2423
     17 C         141.5610  139.8837  167.3125 C.3     1  UNL1        0.0575
     18 C         142.5484  139.4635  168.3606 C.3     1  UNL1        0.0160
     19 C         142.1396  139.4240  169.8033 C.3     1  UNL1        0.0014
     20 C         140.7435  139.8048  170.1979 C.3     1  UNL1        0.0001
     21 C         139.7561  140.2250  169.1499 C.3     1  UNL1        0.0014
     22 C         140.1648  140.2645  167.7071 C.3     1  UNL1        0.0160
@<TRIPOS>BOND
     1     7     8    2
     2     8     9    1
     3     9    10    2
     4    10    11    1
     5    11    12    1
     6    12    13    2
     7    13    14    1
     8    14    15    2
     9    15    16    1
    10    16     1    1
    11     1     2    1
    12     2     3    1
    13     3     4    1
    14     4    17    1
    15    17    18    1
    16    18    19    1
    17    19    20    1
    18    20    21    1
    19    21    22    1
    20     4     5    1
    21     5     6    1
    22    16     8   am
    23     6     1    1
    24    15    10    1
    25    22    17    1
