@<TRIPOS>MOLECULE
*****
 27 30 0 0 0
SMALL
GASTEIGER

@<TRIPOS>ATOM
      1 C         142.6078  137.8325  157.6125 C.3     1  UNL1        0.0523
      2 C         142.7549  138.5837  158.9025 C.ar    1  UNL1        0.0653
      3 C         142.7566  137.8419  160.2064 C.ar    1  UNL1        0.0490
      4 C         142.9037  138.5930  161.4964 C.ar    1  UNL1        0.1342
      5 N         143.0492  140.0859  161.4826 N.ar    1  UNL1       -0.1816
      6 N         143.2103  141.0888  162.5863 N.ar    1  UNL1       -0.1409
      7 C         143.3082  142.4504  161.9646 C.ar    1  UNL1        0.2227
      8 N         143.2076  142.2890  160.4767 N.ar    1  UNL1       -0.1880
      9 C         143.0474  140.8276  160.1788 C.ar    1  UNL1        0.2552
     10 N         142.9003  140.0765  158.8888 N.ar    1  UNL1       -0.2142
     11 C         143.4771  143.7461  162.7015 C.3     1  UNL1        0.3163
     12 C         143.6460  145.0416  163.4384 C.3     1  UNL1        0.0805
     13 F         144.8480  143.9020  162.1132 F       1  UNL1       -0.1962
     14 F         142.1062  143.5901  163.2898 F       1  UNL1       -0.1962
     15 N         142.9054  137.8513  162.8001 N.pl3   1  UNL1       -0.3192
     16 H         143.4619  137.0463  162.9078 H       1  UNL1        0.1482
     17 C         142.0594  138.3361  163.9400 C.3     1  UNL1        0.0750
     18 C         140.5758  138.4745  163.7669 C.3     1  UNL1        0.0245
     19 C         139.7299  138.9593  164.9067 C.3     1  UNL1        0.0278
     20 C         140.3674  139.3058  166.2196 C.ar    1  UNL1       -0.0255
     21 C         139.5213  139.7906  167.3594 C.ar    1  UNL1        0.0021
     22 C         140.1588  140.1370  168.6723 C.ar    1  UNL1        0.0342
     23 BR        139.3128  140.6218  169.8121 Br      1  UNL1       -0.0490
     24 C         141.6424  139.9986  168.8453 C.ar    1  UNL1        0.0064
     25 C         142.4884  139.5138  167.7055 C.ar    1  UNL1       -0.0040
     26 C         141.8509  139.1674  166.3926 C.ar    1  UNL1       -0.0245
     27 C         142.6969  138.6826  165.2528 C.3     1  UNL1        0.0455
@<TRIPOS>BOND
     1     1     2    1
     2     2     3   ar
     3     3     4   ar
     4     4    15    1
     5    15    17    1
     6    17    18    1
     7    18    19    1
     8    19    20    1
     9    20    21   ar
    10    21    22   ar
    11    22    23    1
    12    22    24   ar
    13    24    25   ar
    14    25    26   ar
    15    26    27    1
    16     4     5   ar
    17     5     6   ar
    18     6     7   ar
    19     7    11    1
    20    11    12    1
    21    11    13    1
    22    11    14    1
    23     7     8   ar
    24     8     9   ar
    25     9    10   ar
    26    10     2   ar
    27    27    17    1
    28     9     5   ar
    29    26    20   ar
    30    15    16    1
@<TRIPOS>MOLECULE
*****
 27 30 0 0 0
SMALL
GASTEIGER

@<TRIPOS>ATOM
      1 C         139.4646  140.4799  170.6499 C.3     1  UNL1        0.0523
      2 C         139.6014  140.4903  169.1562 C.ar    1  UNL1        0.0653
      3 C         140.5415  141.4548  168.4959 C.ar    1  UNL1        0.0490
      4 C         140.6782  141.4653  167.0021 C.ar    1  UNL1        0.1342
      5 N         139.8748  140.5112  166.1688 N.ar    1  UNL1       -0.1816
      6 N         139.7992  140.2912  164.6870 N.ar    1  UNL1       -0.1409
      7 C         138.8124  139.1908  164.4315 C.ar    1  UNL1        0.2227
      8 N         138.2781  138.7307  165.7554 N.ar    1  UNL1       -0.1880
      9 C         138.9347  139.5468  166.8292 C.ar    1  UNL1        0.2552
     10 N         138.7980  139.5364  168.3229 N.ar    1  UNL1       -0.2142
     11 C         138.4275  138.6460  163.0879 C.3     1  UNL1        0.3163
     12 C         138.0426  138.1013  161.7444 C.3     1  UNL1        0.0805
     13 F         137.6524  139.8981  162.8023 F       1  UNL1       -0.1962
     14 F         139.2026  137.3940  163.3735 F       1  UNL1       -0.1962
     15 N         141.6183  142.4297  166.3418 N.pl3   1  UNL1       -0.3192
     16 H         142.4946  142.6194  166.7483 H       1  UNL1        0.1482
     17 C         141.2232  143.1050  165.0619 C.3     1  UNL1        0.0750
     18 C         140.0308  144.0144  165.0309 C.3     1  UNL1        0.0245
     19 C         139.6357  144.6897  163.7511 C.3     1  UNL1        0.0278
     20 C         140.4331  144.4555  162.5023 C.ar    1  UNL1       -0.0255
     21 C         140.0380  145.1309  161.2225 C.ar    1  UNL1        0.0021
     22 C         140.8354  144.8967  159.9738 C.ar    1  UNL1        0.0342
     23 BR        140.4403  145.5719  158.6940 Br      1  UNL1       -0.0490
     24 C         142.0278  143.9872  160.0049 C.ar    1  UNL1        0.0064
     25 C         142.4229  143.3119  161.2846 C.ar    1  UNL1       -0.0040
     26 C         141.6255  143.5461  162.5334 C.ar    1  UNL1       -0.0245
     27 C         142.0206  142.8708  163.8132 C.3     1  UNL1        0.0455
@<TRIPOS>BOND
     1     1     2    1
     2     2     3   ar
     3     3     4   ar
     4     4    15    1
     5    15    17    1
     6    17    18    1
     7    18    19    1
     8    19    20    1
     9    20    21   ar
    10    21    22   ar
    11    22    23    1
    12    22    24   ar
    13    24    25   ar
    14    25    26   ar
    15    26    27    1
    16     4     5   ar
    17     5     6   ar
    18     6     7   ar
    19     7    11    1
    20    11    12    1
    21    11    13    1
    22    11    14    1
    23     7     8   ar
    24     8     9   ar
    25     9    10   ar
    26    10     2   ar
    27    27    17    1
    28     9     5   ar
    29    26    20   ar
    30    15    16    1
@<TRIPOS>MOLECULE
*****
 27 30 0 0 0
SMALL
GASTEIGER

@<TRIPOS>ATOM
      1 C         139.7776  142.6534  171.1594 C.3     1  UNL1        0.0523
      2 C         140.2262  141.9678  169.9029 C.ar    1  UNL1        0.0653
      3 C         139.3624  140.9153  169.2735 C.ar    1  UNL1        0.0490
      4 C         139.8110  140.2296  168.0171 C.ar    1  UNL1        0.1342
      5 N         141.1233  140.5965  167.3900 N.ar    1  UNL1       -0.1816
      6 N         141.8233  140.0962  166.1613 N.ar    1  UNL1       -0.1409
      7 C         143.1197  140.8395  166.0313 C.ar    1  UNL1        0.2227
      8 N         143.2209  141.7992  167.1797 N.ar    1  UNL1       -0.1880
      9 C         141.9871  141.6490  168.0194 C.ar    1  UNL1        0.2552
     10 N         141.5385  142.3346  169.2759 N.ar    1  UNL1       -0.2142
     11 C         144.1363  140.6554  164.9439 C.3     1  UNL1        0.3163
     12 C         145.1530  140.4714  163.8564 C.3     1  UNL1        0.0805
     13 F         144.0752  139.1693  165.1382 F       1  UNL1       -0.1962
     14 F         144.1975  142.1415  164.7495 F       1  UNL1       -0.1962
     15 N         138.9472  139.1771  167.3877 N.pl3   1  UNL1       -0.3192
     16 H         138.4862  138.5159  167.9529 H       1  UNL1        0.1482
     17 C         138.7858  139.1321  165.8970 C.3     1  UNL1        0.0750
     18 C         138.9327  137.8308  165.1657 C.3     1  UNL1        0.0245
     19 C         138.7713  137.7858  163.6751 C.3     1  UNL1        0.0278
     20 C         138.4630  139.0421  162.9159 C.ar    1  UNL1       -0.0255
     21 C         138.3016  138.9971  161.4252 C.ar    1  UNL1        0.0021
     22 C         137.9933  140.2535  160.6659 C.ar    1  UNL1        0.0342
     23 BR        137.8319  140.2085  159.1753 Br      1  UNL1       -0.0490
     24 C         137.8464  141.5549  161.3973 C.ar    1  UNL1        0.0064
     25 C         138.0078  141.5999  162.8879 C.ar    1  UNL1       -0.0040
     26 C         138.3161  140.3435  163.6472 C.ar    1  UNL1       -0.0245
     27 C         138.4775  140.3885  165.1377 C.3     1  UNL1        0.0455
@<TRIPOS>BOND
     1     1     2    1
     2     2     3   ar
     3     3     4   ar
     4     4    15    1
     5    15    17    1
     6    17    18    1
     7    18    19    1
     8    19    20    1
     9    20    21   ar
    10    21    22   ar
    11    22    23    1
    12    22    24   ar
    13    24    25   ar
    14    25    26   ar
    15    26    27    1
    16     4     5   ar
    17     5     6   ar
    18     6     7   ar
    19     7    11    1
    20    11    12    1
    21    11    13    1
    22    11    14    1
    23     7     8   ar
    24     8     9   ar
    25     9    10   ar
    26    10     2   ar
    27    27    17    1
    28     9     5   ar
    29    26    20   ar
    30    15    16    1
@<TRIPOS>MOLECULE
*****
 27 30 0 0 0
SMALL
GASTEIGER

@<TRIPOS>ATOM
      1 C         139.5849  138.8778  158.4881 C.3     1  UNL1        0.0523
      2 C         139.4347  139.4070  159.8836 C.ar    1  UNL1        0.0653
      3 C         139.4683  138.4651  161.0506 C.ar    1  UNL1        0.0490
      4 C         139.3181  138.9944  162.4461 C.ar    1  UNL1        0.1342
      5 N         139.1343  140.4655  162.6745 N.ar    1  UNL1       -0.1816
      6 N         138.9613  141.2727  163.9269 N.ar    1  UNL1       -0.1409
      7 C         138.8208  142.7135  163.5339 C.ar    1  UNL1        0.2227
      8 N         138.9069  142.7966  162.0387 N.ar    1  UNL1       -0.1880
      9 C         139.1007  141.4073  161.5076 C.ar    1  UNL1        0.2552
     10 N         139.2509  140.8780  160.1121 N.ar    1  UNL1       -0.2142
     11 C         138.6279  143.8684  164.4715 C.3     1  UNL1        0.3163
     12 C         138.4351  145.0232  165.4092 C.3     1  UNL1        0.0805
     13 F         137.9807  144.6546  163.3702 F       1  UNL1       -0.1962
     14 F         139.2752  143.0822  165.5729 F       1  UNL1       -0.1962
     15 N         139.3518  138.0526  163.6130 N.pl3   1  UNL1       -0.3192
     16 H         139.2639  137.0831  163.4659 H       1  UNL1        0.1482
     17 C         139.5194  138.5879  165.0043 C.3     1  UNL1        0.0750
     18 C         138.3288  138.7137  165.9079 C.3     1  UNL1        0.0245
     19 C         138.4964  139.2490  167.2991 C.3     1  UNL1        0.0278
     20 C         139.8546  139.6584  167.7866 C.ar    1  UNL1       -0.0255
     21 C         140.0222  140.1937  169.1778 C.ar    1  UNL1        0.0021
     22 C         141.3804  140.6032  169.6653 C.ar    1  UNL1        0.0342
     23 BR        141.5480  141.1384  171.0564 Br      1  UNL1       -0.0490
     24 C         142.5710  140.4773  168.7616 C.ar    1  UNL1        0.0064
     25 C         142.4034  139.9420  167.3704 C.ar    1  UNL1       -0.0040
     26 C         141.0452  139.5326  166.8829 C.ar    1  UNL1       -0.0245
     27 C         140.8776  138.9973  165.4918 C.3     1  UNL1        0.0455
@<TRIPOS>BOND
     1     1     2    1
     2     2     3   ar
     3     3     4   ar
     4     4    15    1
     5    15    17    1
     6    17    18    1
     7    18    19    1
     8    19    20    1
     9    20    21   ar
    10    21    22   ar
    11    22    23    1
    12    22    24   ar
    13    24    25   ar
    14    25    26   ar
    15    26    27    1
    16     4     5   ar
    17     5     6   ar
    18     6     7   ar
    19     7    11    1
    20    11    12    1
    21    11    13    1
    22    11    14    1
    23     7     8   ar
    24     8     9   ar
    25     9    10   ar
    26    10     2   ar
    27    27    17    1
    28     9     5   ar
    29    26    20   ar
    30    15    16    1
@<TRIPOS>MOLECULE
*****
 27 30 0 0 0
SMALL
GASTEIGER

@<TRIPOS>ATOM
      1 C         139.6144  137.7418  154.1387 C.3     1  UNL1        0.0523
      2 C         140.6038  137.0851  155.0551 C.ar    1  UNL1        0.0653
      3 C         141.3002  137.8930  156.1098 C.ar    1  UNL1        0.0490
      4 C         142.2895  137.2363  157.0263 C.ar    1  UNL1        0.1342
      5 N         142.5825  135.7716  156.8880 N.ar    1  UNL1       -0.1816
      6 N         143.5018  134.8565  157.6413 N.ar    1  UNL1       -0.1409
      7 C         143.3735  133.4830  157.0521 C.ar    1  UNL1        0.2227
      8 N         142.3750  133.5493  155.9347 N.ar    1  UNL1       -0.1880
      9 C         141.8861  134.9638  155.8333 C.ar    1  UNL1        0.2552
     10 N         140.8967  135.6205  154.9169 N.ar    1  UNL1       -0.2142
     11 C         144.1139  132.2582  157.5014 C.3     1  UNL1        0.3163
     12 C         144.8542  131.0335  157.9507 C.3     1  UNL1        0.0805
     13 F         145.0536  133.1172  158.2945 F       1  UNL1       -0.1962
     14 F         143.1742  131.3993  156.7083 F       1  UNL1       -0.1962
     15 N         142.9859  138.0441  158.0810 N.pl3   1  UNL1       -0.3192
     16 H         143.7808  138.5763  157.8485 H       1  UNL1        0.1482
     17 C         142.4711  138.0411  159.4899 C.3     1  UNL1        0.0750
     18 C         143.4279  137.9108  160.6377 C.3     1  UNL1        0.0245
     19 C         142.9131  137.9077  162.0466 C.3     1  UNL1        0.0278
     20 C         141.4414  138.0350  162.3076 C.ar    1  UNL1       -0.0255
     21 C         140.9266  138.0319  163.7166 C.ar    1  UNL1        0.0021
     22 C         139.4550  138.1592  163.9776 C.ar    1  UNL1        0.0342
     23 BR        138.9402  138.1561  165.3864 Br      1  UNL1       -0.0490
     24 C         138.4982  138.2895  162.8297 C.ar    1  UNL1        0.0064
     25 C         139.0130  138.2925  161.4208 C.ar    1  UNL1       -0.0040
     26 C         140.4846  138.1653  161.1598 C.ar    1  UNL1       -0.0245
     27 C         140.9995  138.1683  159.7510 C.3     1  UNL1        0.0455
@<TRIPOS>BOND
     1     1     2    1
     2     2     3   ar
     3     3     4   ar
     4     4    15    1
     5    15    17    1
     6    17    18    1
     7    18    19    1
     8    19    20    1
     9    20    21   ar
    10    21    22   ar
    11    22    23    1
    12    22    24   ar
    13    24    25   ar
    14    25    26   ar
    15    26    27    1
    16     4     5   ar
    17     5     6   ar
    18     6     7   ar
    19     7    11    1
    20    11    12    1
    21    11    13    1
    22    11    14    1
    23     7     8   ar
    24     8     9   ar
    25     9    10   ar
    26    10     2   ar
    27    27    17    1
    28     9     5   ar
    29    26    20   ar
    30    15    16    1
@<TRIPOS>MOLECULE
*****
 27 30 0 0 0
SMALL
GASTEIGER

@<TRIPOS>ATOM
      1 C         139.8913  140.3080  170.6554 C.3     1  UNL1        0.0523
      2 C         140.0350  140.2376  169.1640 C.ar    1  UNL1        0.0653
      3 C         141.2179  140.8714  168.4937 C.ar    1  UNL1        0.0490
      4 C         141.3617  140.8009  167.0023 C.ar    1  UNL1        0.1342
      5 N         140.3226  140.0966  166.1811 N.ar    1  UNL1       -0.1816
      6 N         140.1966  139.8671  164.7042 N.ar    1  UNL1       -0.1409
      7 C         138.9358  139.0914  164.4616 C.ar    1  UNL1        0.2227
      8 N         138.2827  138.8416  165.7886 N.ar    1  UNL1       -0.1880
      9 C         139.1398  139.4628  166.8513 C.ar    1  UNL1        0.2552
     10 N         138.9960  139.5333  168.3428 N.ar    1  UNL1       -0.2142
     11 C         138.4189  138.6441  163.1263 C.3     1  UNL1        0.3163
     12 C         137.9021  138.1968  161.7912 C.3     1  UNL1        0.0805
     13 F         137.6803  139.9411  162.9777 F       1  UNL1       -0.1962
     14 F         139.1575  137.3471  163.2749 F       1  UNL1       -0.1962
     15 N         142.5445  141.4347  166.3320 N.pl3   1  UNL1       -0.3192
     16 H         143.4158  141.4577  166.7898 H       1  UNL1        0.1482
     17 C         142.3998  142.0334  164.9643 C.3     1  UNL1        0.0750
     18 C         143.1655  141.4591  163.8094 C.3     1  UNL1        0.0245
     19 C         143.0208  142.0578  162.4417 C.3     1  UNL1        0.0278
     20 C         142.1104  143.2308  162.2290 C.ar    1  UNL1       -0.0255
     21 C         141.9657  143.8295  160.8612 C.ar    1  UNL1        0.0021
     22 C         141.0552  145.0025  160.6484 C.ar    1  UNL1        0.0342
     23 BR        140.9105  145.6012  159.2808 Br      1  UNL1       -0.0490
     24 C         140.2895  145.5768  161.8034 C.ar    1  UNL1        0.0064
     25 C         140.4342  144.9781  163.1711 C.ar    1  UNL1       -0.0040
     26 C         141.3447  143.8051  163.3839 C.ar    1  UNL1       -0.0245
     27 C         141.4894  143.2064  164.7515 C.3     1  UNL1        0.0455
@<TRIPOS>BOND
     1     1     2    1
     2     2     3   ar
     3     3     4   ar
     4     4    15    1
     5    15    17    1
     6    17    18    1
     7    18    19    1
     8    19    20    1
     9    20    21   ar
    10    21    22   ar
    11    22    23    1
    12    22    24   ar
    13    24    25   ar
    14    25    26   ar
    15    26    27    1
    16     4     5   ar
    17     5     6   ar
    18     6     7   ar
    19     7    11    1
    20    11    12    1
    21    11    13    1
    22    11    14    1
    23     7     8   ar
    24     8     9   ar
    25     9    10   ar
    26    10     2   ar
    27    27    17    1
    28     9     5   ar
    29    26    20   ar
    30    15    16    1
@<TRIPOS>MOLECULE
*****
 27 30 0 0 0
SMALL
GASTEIGER

@<TRIPOS>ATOM
      1 C         142.8597  143.1249  157.5943 C.3     1  UNL1        0.0523
      2 C         142.4711  143.2522  159.0375 C.ar    1  UNL1        0.0653
      3 C         143.4903  143.0151  160.1123 C.ar    1  UNL1        0.0490
      4 C         143.1017  143.1424  161.5555 C.ar    1  UNL1        0.1342
      5 N         141.6939  143.5067  161.9239 N.ar    1  UNL1       -0.1816
      6 N         141.0226  143.7033  163.2508 N.ar    1  UNL1       -0.1409
      7 C         139.5885  144.0619  162.9960 C.ar    1  UNL1        0.2227
      8 N         139.3736  144.0868  161.5117 N.ar    1  UNL1       -0.1880
      9 C         140.6748  143.7437  160.8491 C.ar    1  UNL1        0.2552
     10 N         141.0634  143.6164  159.4059 N.ar    1  UNL1       -0.2142
     11 C         138.5514  144.3456  164.0420 C.3     1  UNL1        0.3163
     12 C         137.5143  144.6294  165.0878 C.3     1  UNL1        0.0805
     13 F         139.5534  144.0453  165.1170 F       1  UNL1       -0.1962
     14 F         137.5494  144.6460  162.9669 F       1  UNL1       -0.1962
     15 N         144.1208  142.9054  162.6303 N.pl3   1  UNL1       -0.3192
     16 H         145.0103  143.3223  162.5658 H       1  UNL1        0.1482
     17 C         143.7846  142.0332  163.8035 C.3     1  UNL1        0.0750
     18 C         143.5958  140.5576  163.6114 C.3     1  UNL1        0.0245
     19 C         143.2597  139.6855  164.7845 C.3     1  UNL1        0.0278
     20 C         143.1122  140.2889  166.1498 C.ar    1  UNL1       -0.0255
     21 C         142.7760  139.4167  167.3230 C.ar    1  UNL1        0.0021
     22 C         142.6285  140.0202  168.6883 C.ar    1  UNL1        0.0342
     23 BR        142.2923  139.1481  169.8615 Br      1  UNL1       -0.0490
     24 C         142.8172  141.4959  168.8805 C.ar    1  UNL1        0.0064
     25 C         143.1534  142.3680  167.7073 C.ar    1  UNL1       -0.0040
     26 C         143.3009  141.7645  166.3420 C.ar    1  UNL1       -0.0245
     27 C         143.6371  142.6367  165.1688 C.3     1  UNL1        0.0455
@<TRIPOS>BOND
     1     1     2    1
     2     2     3   ar
     3     3     4   ar
     4     4    15    1
     5    15    17    1
     6    17    18    1
     7    18    19    1
     8    19    20    1
     9    20    21   ar
    10    21    22   ar
    11    22    23    1
    12    22    24   ar
    13    24    25   ar
    14    25    26   ar
    15    26    27    1
    16     4     5   ar
    17     5     6   ar
    18     6     7   ar
    19     7    11    1
    20    11    12    1
    21    11    13    1
    22    11    14    1
    23     7     8   ar
    24     8     9   ar
    25     9    10   ar
    26    10     2   ar
    27    27    17    1
    28     9     5   ar
    29    26    20   ar
    30    15    16    1
@<TRIPOS>MOLECULE
*****
 27 30 0 0 0
SMALL
GASTEIGER

@<TRIPOS>ATOM
      1 C         138.8844  140.5660  169.9404 C.3     1  UNL1        0.0523
      2 C         139.6530  140.3960  168.6635 C.ar    1  UNL1        0.0653
      3 C         139.1086  139.5243  167.5708 C.ar    1  UNL1        0.0490
      4 C         139.8773  139.3543  166.2940 C.ar    1  UNL1        0.1342
      5 N         141.1903  140.0559  166.1098 N.ar    1  UNL1       -0.1816
      6 N         142.1650  140.0784  164.9700 N.ar    1  UNL1       -0.1409
      7 C         143.3118  140.9640  165.3582 C.ar    1  UNL1        0.2227
      8 N         143.0458  141.4887  166.7379 N.ar    1  UNL1       -0.1880
      9 C         141.7346  140.9275  167.2025 C.ar    1  UNL1        0.2552
     10 N         140.9660  141.0976  168.4794 N.ar    1  UNL1       -0.2142
     11 C         144.5136  141.2709  164.5146 C.3     1  UNL1        0.3163
     12 C         145.7153  141.5777  163.6711 C.3     1  UNL1        0.0805
     13 F         144.5068  142.6835  165.0188 F       1  UNL1       -0.1962
     14 F         144.5203  139.8582  164.0104 F       1  UNL1       -0.1962
     15 N         139.3329  138.4827  165.2013 N.pl3   1  UNL1       -0.3192
     16 H         139.1993  137.5203  165.3598 H       1  UNL1        0.1482
     17 C         138.9922  139.0774  163.8670 C.3     1  UNL1        0.0750
     18 C         138.0941  140.2762  163.7875 C.3     1  UNL1        0.0245
     19 C         137.7535  140.8709  162.4533 C.3     1  UNL1        0.0278
     20 C         138.3109  140.2668  161.1985 C.ar    1  UNL1       -0.0255
     21 C         137.9702  140.8615  159.8642 C.ar    1  UNL1        0.0021
     22 C         138.5276  140.2575  158.6095 C.ar    1  UNL1        0.0342
     23 BR        138.1869  140.8521  157.2752 Br      1  UNL1       -0.0490
     24 C         139.4257  139.0586  158.6890 C.ar    1  UNL1        0.0064
     25 C         139.7664  138.4639  160.0233 C.ar    1  UNL1       -0.0040
     26 C         139.2090  139.0680  161.2780 C.ar    1  UNL1       -0.0245
     27 C         139.5496  138.4734  162.6123 C.3     1  UNL1        0.0455
@<TRIPOS>BOND
     1     1     2    1
     2     2     3   ar
     3     3     4   ar
     4     4    15    1
     5    15    17    1
     6    17    18    1
     7    18    19    1
     8    19    20    1
     9    20    21   ar
    10    21    22   ar
    11    22    23    1
    12    22    24   ar
    13    24    25   ar
    14    25    26   ar
    15    26    27    1
    16     4     5   ar
    17     5     6   ar
    18     6     7   ar
    19     7    11    1
    20    11    12    1
    21    11    13    1
    22    11    14    1
    23     7     8   ar
    24     8     9   ar
    25     9    10   ar
    26    10     2   ar
    27    27    17    1
    28     9     5   ar
    29    26    20   ar
    30    15    16    1
@<TRIPOS>MOLECULE
*****
 27 30 0 0 0
SMALL
GASTEIGER

@<TRIPOS>ATOM
      1 C         140.7054  139.4010  158.2266 C.3     1  UNL1        0.0523
      2 C         140.4640  139.6513  159.6858 C.ar    1  UNL1        0.0653
      3 C         140.9930  140.8983  160.3303 C.ar    1  UNL1        0.0490
      4 C         140.7517  141.1486  161.7895 C.ar    1  UNL1        0.1342
      5 N         139.9814  140.1520  162.6041 N.ar    1  UNL1       -0.1816
      6 N         139.5894  140.1276  164.0517 N.ar    1  UNL1       -0.1409
      7 C         138.8182  138.8656  164.3019 C.ar    1  UNL1        0.2227
      8 N         138.7335  138.1101  163.0088 N.ar    1  UNL1       -0.1880
      9 C         139.4524  138.9051  161.9595 C.ar    1  UNL1        0.2552
     10 N         139.6938  138.6548  160.5004 N.ar    1  UNL1       -0.2142
     11 C         138.2341  138.4348  165.6147 C.3     1  UNL1        0.3163
     12 C         137.6501  138.0040  166.9274 C.3     1  UNL1        0.0805
     13 F         137.7964  139.8443  165.8825 F       1  UNL1       -0.1962
     14 F         138.6719  137.0254  165.3468 F       1  UNL1       -0.1962
     15 N         141.2807  142.3955  162.4340 N.pl3   1  UNL1       -0.3192
     16 H         141.3270  143.2338  161.9199 H       1  UNL1        0.1482
     17 C         141.7390  142.3651  163.8620 C.3     1  UNL1        0.0750
     18 C         143.1584  142.0046  164.1866 C.3     1  UNL1        0.0245
     19 C         143.6166  141.9743  165.6145 C.3     1  UNL1        0.0278
     20 C         142.6556  142.3045  166.7179 C.ar    1  UNL1       -0.0255
     21 C         143.1139  142.2741  168.1459 C.ar    1  UNL1        0.0021
     22 C         142.1529  142.6043  169.2492 C.ar    1  UNL1        0.0342
     23 BR        142.6111  142.5739  170.6771 Br      1  UNL1       -0.0490
     24 C         140.7334  142.9648  168.9245 C.ar    1  UNL1        0.0064
     25 C         140.2751  142.9951  167.4966 C.ar    1  UNL1       -0.0040
     26 C         141.2362  142.6650  166.3933 C.ar    1  UNL1       -0.0245
     27 C         140.7779  142.6953  164.9654 C.3     1  UNL1        0.0455
@<TRIPOS>BOND
     1     1     2    1
     2     2     3   ar
     3     3     4   ar
     4     4    15    1
     5    15    17    1
     6    17    18    1
     7    18    19    1
     8    19    20    1
     9    20    21   ar
    10    21    22   ar
    11    22    23    1
    12    22    24   ar
    13    24    25   ar
    14    25    26   ar
    15    26    27    1
    16     4     5   ar
    17     5     6   ar
    18     6     7   ar
    19     7    11    1
    20    11    12    1
    21    11    13    1
    22    11    14    1
    23     7     8   ar
    24     8     9   ar
    25     9    10   ar
    26    10     2   ar
    27    27    17    1
    28     9     5   ar
    29    26    20   ar
    30    15    16    1
