@<TRIPOS>MOLECULE
*****
 36 39 0 0 0
SMALL
GASTEIGER

@<TRIPOS>ATOM
      1 N         141.6079  144.6703  161.7612 N.3     1  UNL1       -0.2673
      2 C         142.1904  144.8955  163.1250 C.3     1  UNL1        0.1035
      3 C         143.1694  143.9119  163.6941 C.3     1  UNL1        0.1470
      4 C         144.1484  142.9282  164.2633 C.3     1  UNL1        0.1035
      5 N         144.5449  141.7193  163.4687 N.3     1  UNL1       -0.2684
      6 C         143.9624  141.4942  162.1048 C.3     1  UNL1        0.1035
      7 C         142.9834  142.4778  161.5357 C.3     1  UNL1        0.1470
      8 C         142.0044  143.4615  160.9666 C.3     1  UNL1        0.1035
      9 O         143.5659  142.7030  162.8995 O.3     1  UNL1       -0.3530
     10 C         140.6289  145.6540  161.1920 C.3     1  UNL1        0.0913
     11 C         139.4640  146.1155  162.0166 C.3     1  UNL1        0.1087
     12 N         138.2944  145.2030  162.2393 N.3     1  UNL1       -0.1780
     13 H         137.6626  145.6848  162.8789 H       1  UNL1        0.1488
     14 S         138.5116  143.8283  162.7989 S.O2    1  UNL1        0.0603
     15 O         138.0903  143.2290  161.4899 O.2     1  UNL1       -0.1530
     16 O         138.9328  144.4277  164.1078 O.2     1  UNL1       -0.1530
     17 C         139.1630  139.7043  164.4775 C.ar    1  UNL1        0.1388
     18 C         138.2845  140.6794  165.2036 C.ar    1  UNL1        0.0383
     19 C         138.0673  142.0541  164.6441 C.ar    1  UNL1        0.0230
     20 C         138.7287  142.4537  163.3584 C.ar    1  UNL1        0.1221
     21 C         139.6073  141.4785  162.6323 C.ar    1  UNL1        0.0230
     22 C         139.8244  140.1038  163.1919 C.ar    1  UNL1        0.0383
     23 C         140.4249  137.4336  164.4408 C.3     1  UNL1        0.2525
     24 O         139.3802  138.3297  165.0371 O.3     1  UNL1       -0.4714
     25 C         145.5239  140.7357  164.0378 C.3     1  UNL1        0.0761
     26 C         145.0491  139.3945  164.5132 C.3     1  UNL1        0.0646
     27 C         143.6071  139.1941  164.8743 C.3     1  UNL1        0.2068
     28 O         143.2149  138.9841  166.3067 O.3     1  UNL1       -0.4754
     29 C         142.5819  140.1010  167.0825 C.ar    1  UNL1        0.1386
     30 C         142.6748  140.1211  168.5795 C.ar    1  UNL1        0.0376
     31 C         142.0418  141.2380  169.3552 C.ar    1  UNL1        0.0134
     32 C         141.3159  142.3348  168.6340 C.ar    1  UNL1        0.0686
     33 C         141.2230  142.3147  167.1370 C.ar    1  UNL1        0.0134
     34 C         141.8560  141.1978  166.3613 C.ar    1  UNL1        0.0376
     35 C         140.6829  143.4518  169.4098 C.1     1  UNL1        0.1004
     36 N         140.0499  144.5686  170.1855 N.1     1  UNL1       -0.1908
@<TRIPOS>BOND
     1    23    24    1
     2    24    17    1
     3    17    18   ar
     4    18    19   ar
     5    19    20   ar
     6    20    14    1
     7    14    15    2
     8    14    16    2
     9    14    12    1
    10    12    11    1
    11    11    10    1
    12    10     1    1
    13     1     2    1
    14     2     3    1
    15     3     4    1
    16     4     5    1
    17     5    25    1
    18    25    26    1
    19    26    27    1
    20    27    28    1
    21    28    29    1
    22    29    30   ar
    23    30    31   ar
    24    31    32   ar
    25    32    35    1
    26    35    36    3
    27    32    33   ar
    28    33    34   ar
    29     5     6    1
    30     6     7    1
    31     7     8    1
    32     7     9    1
    33    20    21   ar
    34    21    22   ar
    35    22    17   ar
    36     8     1    1
    37     9     3    1
    38    34    29   ar
    39    12    13    1
@<TRIPOS>MOLECULE
*****
 36 39 0 0 0
SMALL
GASTEIGER

@<TRIPOS>ATOM
      1 N         141.1441  144.2674  160.5306 N.3     1  UNL1       -0.2673
      2 C         140.6471  143.0921  159.7423 C.3     1  UNL1        0.1035
      3 C         141.3863  141.7879  159.7936 C.3     1  UNL1        0.1470
      4 C         142.1255  140.4837  159.8449 C.3     1  UNL1        0.1035
      5 N         143.3618  140.3548  160.6846 N.3     1  UNL1       -0.2684
      6 C         143.8588  141.5302  161.4730 C.3     1  UNL1        0.1035
      7 C         143.1196  142.8344  161.4216 C.3     1  UNL1        0.1470
      8 C         142.3804  144.1385  161.3703 C.3     1  UNL1        0.1035
      9 O         142.6225  141.6591  160.6333 O.3     1  UNL1       -0.3530
     10 C         140.4049  145.5717  160.4793 C.3     1  UNL1        0.0913
     11 C         139.7711  146.1239  161.7216 C.3     1  UNL1        0.1087
     12 N         138.4884  145.5380  162.2332 N.3     1  UNL1       -0.1780
     13 H         138.1035  146.2082  162.8988 H       1  UNL1        0.1488
     14 S         138.4938  144.2030  162.9170 S.O2    1  UNL1        0.0603
     15 O         137.8121  143.5917  161.7289 O.2     1  UNL1       -0.1530
     16 O         139.1755  144.8143  164.1051 O.2     1  UNL1       -0.1530
     17 C         138.5100  140.1978  164.9684 C.ar    1  UNL1        0.1388
     18 C         139.2166  141.3637  165.5940 C.ar    1  UNL1        0.0383
     19 C         139.2112  142.6988  164.9102 C.ar    1  UNL1        0.0230
     20 C         138.4992  142.8680  163.6008 C.ar    1  UNL1        0.1221
     21 C         137.7926  141.7020  162.9752 C.ar    1  UNL1        0.0230
     22 C         137.7980  140.3670  163.6590 C.ar    1  UNL1        0.0383
     23 C         137.7907  138.6836  166.9532 C.3     1  UNL1        0.2525
     24 O         138.5154  138.8628  165.6522 O.3     1  UNL1       -0.4714
     25 C         144.1010  139.0507  160.7359 C.3     1  UNL1        0.0761
     26 C         143.6986  137.9989  161.7270 C.3     1  UNL1        0.0646
     27 C         143.2017  138.3986  163.0846 C.3     1  UNL1        0.2068
     28 O         144.1394  139.0305  164.0703 O.3     1  UNL1       -0.4754
     29 C         143.5966  139.8584  165.1973 C.ar    1  UNL1        0.1386
     30 C         143.0453  139.1896  166.4214 C.ar    1  UNL1        0.0376
     31 C         142.5025  140.0176  167.5483 C.ar    1  UNL1        0.0134
     32 C         142.5112  141.5144  167.4510 C.ar    1  UNL1        0.0686
     33 C         143.0625  142.1832  166.2268 C.ar    1  UNL1        0.0134
     34 C         143.6052  141.3553  165.1000 C.ar    1  UNL1        0.0376
     35 C         141.9684  142.3424  168.5779 C.1     1  UNL1        0.1004
     36 N         141.4257  143.1703  169.7048 N.1     1  UNL1       -0.1908
@<TRIPOS>BOND
     1    23    24    1
     2    24    17    1
     3    17    18   ar
     4    18    19   ar
     5    19    20   ar
     6    20    14    1
     7    14    15    2
     8    14    16    2
     9    14    12    1
    10    12    11    1
    11    11    10    1
    12    10     1    1
    13     1     2    1
    14     2     3    1
    15     3     4    1
    16     4     5    1
    17     5    25    1
    18    25    26    1
    19    26    27    1
    20    27    28    1
    21    28    29    1
    22    29    30   ar
    23    30    31   ar
    24    31    32   ar
    25    32    35    1
    26    35    36    3
    27    32    33   ar
    28    33    34   ar
    29     5     6    1
    30     6     7    1
    31     7     8    1
    32     7     9    1
    33    20    21   ar
    34    21    22   ar
    35    22    17   ar
    36     8     1    1
    37     9     3    1
    38    34    29   ar
    39    12    13    1
@<TRIPOS>MOLECULE
*****
 36 39 0 0 0
SMALL
GASTEIGER

@<TRIPOS>ATOM
      1 N         139.5407  137.6033  164.2398 N.3     1  UNL1       -0.2673
      2 C         138.8921  138.0186  162.9526 C.3     1  UNL1        0.1035
      3 C         139.7352  138.2980  161.7439 C.3     1  UNL1        0.1470
      4 C         140.5784  138.5773  160.5351 C.3     1  UNL1        0.1035
      5 N         142.0701  138.4414  160.6135 N.3     1  UNL1       -0.2684
      6 C         142.7188  138.0260  161.9008 C.3     1  UNL1        0.1035
      7 C         141.8756  137.7467  163.1095 C.3     1  UNL1        0.1470
      8 C         141.0325  137.4673  164.3182 C.3     1  UNL1        0.1035
      9 O         141.2270  138.1620  161.8223 O.3     1  UNL1       -0.3530
     10 C         138.6975  137.3239  165.4486 C.3     1  UNL1        0.0913
     11 C         138.0727  138.4581  166.2055 C.3     1  UNL1        0.1087
     12 N         138.9307  139.5671  166.7385 N.3     1  UNL1       -0.1780
     13 H         138.4313  139.9710  167.5309 H       1  UNL1        0.1488
     14 S         139.3221  140.7076  165.8464 S.O2    1  UNL1        0.0603
     15 O         137.9907  140.6276  165.1602 O.2     1  UNL1       -0.1530
     16 O         140.6535  140.7876  166.5326 O.2     1  UNL1       -0.1530
     17 C         140.4961  144.1293  163.1699 C.ar    1  UNL1        0.1388
     18 C         140.1669  142.7917  162.5764 C.ar    1  UNL1        0.0383
     19 C         139.7755  141.6510  163.4685 C.ar    1  UNL1        0.0230
     20 C         139.7134  141.8481  164.9542 C.ar    1  UNL1        0.1221
     21 C         140.0426  143.1859  165.5478 C.ar    1  UNL1        0.0230
     22 C         140.4339  144.3264  164.6556 C.ar    1  UNL1        0.0383
     23 C         139.8306  146.1464  161.6738 C.3     1  UNL1        0.2525
     24 O         140.8874  145.2698  162.2777 O.3     1  UNL1       -0.4714
     25 C         142.9133  138.7207  159.4048 C.3     1  UNL1        0.0761
     26 C         143.7689  139.9519  159.3554 C.3     1  UNL1        0.0646
     27 C         143.1843  141.2863  159.7124 C.3     1  UNL1        0.2068
     28 O         144.0041  142.2843  160.4752 O.3     1  UNL1       -0.4754
     29 C         143.8969  142.3575  161.9696 C.ar    1  UNL1        0.1386
     30 C         143.4799  141.1474  162.7517 C.ar    1  UNL1        0.0376
     31 C         143.3728  141.2206  164.2461 C.ar    1  UNL1        0.0134
     32 C         143.6827  142.5038  164.9583 C.ar    1  UNL1        0.0686
     33 C         144.0997  143.7139  164.1762 C.ar    1  UNL1        0.0134
     34 C         144.2068  143.6407  162.6818 C.ar    1  UNL1        0.0376
     35 C         143.5756  142.5770  166.4527 C.1     1  UNL1        0.1004
     36 N         143.4684  142.6501  167.9471 N.1     1  UNL1       -0.1908
@<TRIPOS>BOND
     1    23    24    1
     2    24    17    1
     3    17    18   ar
     4    18    19   ar
     5    19    20   ar
     6    20    14    1
     7    14    15    2
     8    14    16    2
     9    14    12    1
    10    12    11    1
    11    11    10    1
    12    10     1    1
    13     1     2    1
    14     2     3    1
    15     3     4    1
    16     4     5    1
    17     5    25    1
    18    25    26    1
    19    26    27    1
    20    27    28    1
    21    28    29    1
    22    29    30   ar
    23    30    31   ar
    24    31    32   ar
    25    32    35    1
    26    35    36    3
    27    32    33   ar
    28    33    34   ar
    29     5     6    1
    30     6     7    1
    31     7     8    1
    32     7     9    1
    33    20    21   ar
    34    21    22   ar
    35    22    17   ar
    36     8     1    1
    37     9     3    1
    38    34    29   ar
    39    12    13    1
@<TRIPOS>MOLECULE
*****
 36 39 0 0 0
SMALL
GASTEIGER

@<TRIPOS>ATOM
      1 N         140.3792  139.7008  160.3439 N.3     1  UNL1       -0.2673
      2 C         140.8312  141.1166  160.1406 C.3     1  UNL1        0.1035
      3 C         140.1013  142.2409  160.8137 C.3     1  UNL1        0.1470
      4 C         139.3714  143.3652  161.4869 C.3     1  UNL1        0.1035
      5 N         138.1896  143.0738  162.3635 N.3     1  UNL1       -0.2684
      6 C         137.7376  141.6580  162.5668 C.3     1  UNL1        0.1035
      7 C         138.4675  140.5337  161.8936 C.3     1  UNL1        0.1470
      8 C         139.1973  139.4094  161.2204 C.3     1  UNL1        0.1035
      9 O         138.9195  141.9494  161.6903 O.3     1  UNL1       -0.3530
     10 C         141.1091  138.5764  159.6707 C.3     1  UNL1        0.0913
     11 C         142.3709  138.0340  160.2736 C.3     1  UNL1        0.1087
     12 N         142.3063  137.1736  161.5007 N.3     1  UNL1       -0.1780
     13 H         141.5216  136.5349  161.3715 H       1  UNL1        0.1488
     14 S         142.1336  137.8042  162.8506 S.O2    1  UNL1        0.0603
     15 O         143.2939  138.7137  162.5742 O.2     1  UNL1       -0.1530
     16 O         140.9733  136.8948  163.1270 O.2     1  UNL1       -0.1530
     17 C         141.6154  139.6962  166.9005 C.ar    1  UNL1        0.1388
     18 C         140.4364  139.5494  165.9849 C.ar    1  UNL1        0.0383
     19 C         140.6091  138.9188  164.6349 C.ar    1  UNL1        0.0230
     20 C         141.9608  138.4349  164.2006 C.ar    1  UNL1        0.1221
     21 C         143.1399  138.5817  165.1162 C.ar    1  UNL1        0.0230
     22 C         142.9671  139.2123  166.4662 C.ar    1  UNL1        0.0383
     23 C         140.2744  141.2306  168.5121 C.3     1  UNL1        0.2525
     24 O         141.4426  140.3268  168.2505 O.3     1  UNL1       -0.4714
     25 C         137.4597  144.1981  163.0366 C.3     1  UNL1        0.0761
     26 C         137.4608  144.3035  164.5330 C.3     1  UNL1        0.0646
     27 C         138.7558  144.4642  165.2726 C.3     1  UNL1        0.2068
     28 O         139.9039  145.1823  164.6274 O.3     1  UNL1       -0.4754
     29 C         141.1801  144.4489  164.3382 C.ar    1  UNL1        0.1386
     30 C         142.3749  145.1964  163.8250 C.ar    1  UNL1        0.0376
     31 C         143.6510  144.4630  163.5358 C.ar    1  UNL1        0.0134
     32 C         143.7322  142.9821  163.7599 C.ar    1  UNL1        0.0686
     33 C         142.5374  142.2345  164.2732 C.ar    1  UNL1        0.0134
     34 C         141.2613  142.9680  164.5623 C.ar    1  UNL1        0.0376
     35 C         145.0084  142.2487  163.4708 C.1     1  UNL1        0.1004
     36 N         146.2846  141.5153  163.1816 N.1     1  UNL1       -0.1908
@<TRIPOS>BOND
     1    23    24    1
     2    24    17    1
     3    17    18   ar
     4    18    19   ar
     5    19    20   ar
     6    20    14    1
     7    14    15    2
     8    14    16    2
     9    14    12    1
    10    12    11    1
    11    11    10    1
    12    10     1    1
    13     1     2    1
    14     2     3    1
    15     3     4    1
    16     4     5    1
    17     5    25    1
    18    25    26    1
    19    26    27    1
    20    27    28    1
    21    28    29    1
    22    29    30   ar
    23    30    31   ar
    24    31    32   ar
    25    32    35    1
    26    35    36    3
    27    32    33   ar
    28    33    34   ar
    29     5     6    1
    30     6     7    1
    31     7     8    1
    32     7     9    1
    33    20    21   ar
    34    21    22   ar
    35    22    17   ar
    36     8     1    1
    37     9     3    1
    38    34    29   ar
    39    12    13    1
@<TRIPOS>MOLECULE
*****
 36 39 0 0 0
SMALL
GASTEIGER

@<TRIPOS>ATOM
      1 N         141.9845  144.5854  161.3218 N.3     1  UNL1       -0.2673
      2 C         142.4075  144.7992  162.7449 C.3     1  UNL1        0.1035
      3 C         143.3080  143.8056  163.4171 C.3     1  UNL1        0.1470
      4 C         144.2085  142.8120  164.0893 C.3     1  UNL1        0.1035
      5 N         144.6860  141.6045  163.3383 N.3     1  UNL1       -0.2684
      6 C         144.2630  141.3907  161.9151 C.3     1  UNL1        0.1035
      7 C         143.3625  142.3843  161.2429 C.3     1  UNL1        0.1470
      8 C         142.4621  143.3779  160.5708 C.3     1  UNL1        0.1035
      9 O         143.7855  142.5981  162.6661 O.3     1  UNL1       -0.3530
     10 C         141.0840  145.5791  160.6496 C.3     1  UNL1        0.0913
     11 C         139.5960  145.3965  160.6995 C.3     1  UNL1        0.1087
     12 N         138.8780  145.4460  162.0156 N.3     1  UNL1       -0.1780
     13 H         139.2755  146.2262  162.5387 H       1  UNL1        0.1488
     14 S         138.9019  144.2559  162.9282 S.O2    1  UNL1        0.0603
     15 O         139.3349  145.1352  164.0636 O.2     1  UNL1       -0.1530
     16 O         138.4689  143.3765  161.7928 O.2     1  UNL1       -0.1530
     17 C         138.9735  140.6854  165.6662 C.ar    1  UNL1        0.1388
     18 C         140.0271  141.7459  165.7890 C.ar    1  UNL1        0.0383
     19 C         140.0033  142.9361  164.8763 C.ar    1  UNL1        0.0230
     20 C         138.9257  143.0657  163.8409 C.ar    1  UNL1        0.1221
     21 C         137.8721  142.0051  163.7181 C.ar    1  UNL1        0.0230
     22 C         137.8960  140.8150  164.6307 C.ar    1  UNL1        0.0383
     23 C         137.7488  138.6936  166.7988 C.3     1  UNL1        0.2525
     24 O         138.9974  139.4952  166.5788 O.3     1  UNL1       -0.4714
     25 C         145.5865  140.6109  164.0104 C.3     1  UNL1        0.0761
     26 C         145.0342  139.2997  164.4859 C.3     1  UNL1        0.0646
     27 C         143.7694  139.2666  165.2916 C.3     1  UNL1        0.2068
     28 O         142.7390  138.2092  165.0268 O.3     1  UNL1       -0.4754
     29 C         141.6274  138.4720  164.0544 C.ar    1  UNL1        0.1386
     30 C         140.4878  137.5036  163.9386 C.ar    1  UNL1        0.0376
     31 C         139.3762  137.7664  162.9663 C.ar    1  UNL1        0.0134
     32 C         139.4044  138.9975  162.1098 C.ar    1  UNL1        0.0686
     33 C         140.5440  139.9659  162.2257 C.ar    1  UNL1        0.0134
     34 C         141.6556  139.7031  163.1980 C.ar    1  UNL1        0.0376
     35 C         138.2928  139.2603  161.1375 C.1     1  UNL1        0.1004
     36 N         137.1812  139.5230  160.1652 N.1     1  UNL1       -0.1908
@<TRIPOS>BOND
     1    23    24    1
     2    24    17    1
     3    17    18   ar
     4    18    19   ar
     5    19    20   ar
     6    20    14    1
     7    14    15    2
     8    14    16    2
     9    14    12    1
    10    12    11    1
    11    11    10    1
    12    10     1    1
    13     1     2    1
    14     2     3    1
    15     3     4    1
    16     4     5    1
    17     5    25    1
    18    25    26    1
    19    26    27    1
    20    27    28    1
    21    28    29    1
    22    29    30   ar
    23    30    31   ar
    24    31    32   ar
    25    32    35    1
    26    35    36    3
    27    32    33   ar
    28    33    34   ar
    29     5     6    1
    30     6     7    1
    31     7     8    1
    32     7     9    1
    33    20    21   ar
    34    21    22   ar
    35    22    17   ar
    36     8     1    1
    37     9     3    1
    38    34    29   ar
    39    12    13    1
@<TRIPOS>MOLECULE
*****
 36 39 0 0 0
SMALL
GASTEIGER

@<TRIPOS>ATOM
      1 N         140.8097  144.9312  163.0556 N.3     1  UNL1       -0.2673
      2 C         142.2649  144.5973  163.1995 C.3     1  UNL1        0.1035
      3 C         142.7316  143.7588  164.3524 C.3     1  UNL1        0.1470
      4 C         143.1983  142.9203  165.5053 C.3     1  UNL1        0.1035
      5 N         142.2096  142.4157  166.5143 N.3     1  UNL1       -0.2684
      6 C         140.7543  142.7497  166.3703 C.3     1  UNL1        0.1035
      7 C         140.2877  143.5881  165.2175 C.3     1  UNL1        0.1470
      8 C         139.8211  144.4266  164.0646 C.3     1  UNL1        0.1035
      9 O         141.7429  143.2543  165.3614 O.3     1  UNL1       -0.3530
     10 C         140.3430  145.7697  161.9027 C.3     1  UNL1        0.0913
     11 C         140.5043  145.2695  160.4978 C.3     1  UNL1        0.1087
     12 N         139.5289  144.2765  159.9386 N.3     1  UNL1       -0.1780
     13 H         138.6168  144.7329  159.9294 H       1  UNL1        0.1488
     14 S         139.3420  142.9487  160.6107 S.O2    1  UNL1        0.0603
     15 O         140.7514  142.5731  160.2609 O.2     1  UNL1       -0.1530
     16 O         137.9325  143.3242  160.9605 O.2     1  UNL1       -0.1530
     17 C         138.7811  138.9650  162.6270 C.ar    1  UNL1        0.1388
     18 C         138.2857  140.2167  163.2886 C.ar    1  UNL1        0.0383
     19 C         138.4727  141.5447  162.6164 C.ar    1  UNL1        0.0230
     20 C         139.1550  141.6208  161.2828 C.ar    1  UNL1        0.1221
     21 C         139.6504  140.3689  160.6212 C.ar    1  UNL1        0.0230
     22 C         139.4634  139.0411  161.2934 C.ar    1  UNL1        0.0383
     23 C         139.0846  137.4307  164.7016 C.3     1  UNL1        0.2525
     24 O         138.5941  137.6371  163.2991 O.3     1  UNL1       -0.4714
     25 C         142.6763  141.5773  167.6672 C.3     1  UNL1        0.0761
     26 C         142.1456  140.1856  167.8457 C.3     1  UNL1        0.0646
     27 C         143.0056  139.0053  167.5034 C.3     1  UNL1        0.2068
     28 O         142.9166  138.3823  166.1418 O.3     1  UNL1       -0.4754
     29 C         143.2450  139.1929  164.9231 C.ar    1  UNL1        0.1386
     30 C         142.1473  139.6530  164.0103 C.ar    1  UNL1        0.0376
     31 C         142.4757  140.4636  162.7916 C.ar    1  UNL1        0.0134
     32 C         143.9018  140.8140  162.4859 C.ar    1  UNL1        0.0686
     33 C         144.9994  140.3539  163.3987 C.ar    1  UNL1        0.0134
     34 C         144.6710  139.5433  164.6173 C.ar    1  UNL1        0.0376
     35 C         144.2301  141.6246  161.2672 C.1     1  UNL1        0.1004
     36 N         144.5585  142.4352  160.0485 N.1     1  UNL1       -0.1908
@<TRIPOS>BOND
     1    23    24    1
     2    24    17    1
     3    17    18   ar
     4    18    19   ar
     5    19    20   ar
     6    20    14    1
     7    14    15    2
     8    14    16    2
     9    14    12    1
    10    12    11    1
    11    11    10    1
    12    10     1    1
    13     1     2    1
    14     2     3    1
    15     3     4    1
    16     4     5    1
    17     5    25    1
    18    25    26    1
    19    26    27    1
    20    27    28    1
    21    28    29    1
    22    29    30   ar
    23    30    31   ar
    24    31    32   ar
    25    32    35    1
    26    35    36    3
    27    32    33   ar
    28    33    34   ar
    29     5     6    1
    30     6     7    1
    31     7     8    1
    32     7     9    1
    33    20    21   ar
    34    21    22   ar
    35    22    17   ar
    36     8     1    1
    37     9     3    1
    38    34    29   ar
    39    12    13    1
@<TRIPOS>MOLECULE
*****
 36 39 0 0 0
SMALL
GASTEIGER

@<TRIPOS>ATOM
      1 N         139.8270  142.9697  159.7192 N.3     1  UNL1       -0.2673
      2 C         140.5966  141.7265  159.3845 C.3     1  UNL1        0.1035
      3 C         140.2944  140.4424  160.0985 C.3     1  UNL1        0.1470
      4 C         139.9923  139.1583  160.8125 C.3     1  UNL1        0.1035
      5 N         138.9206  139.1174  161.8612 N.3     1  UNL1       -0.2684
      6 C         138.1510  140.3608  162.1959 C.3     1  UNL1        0.1035
      7 C         138.4532  141.6448  161.4819 C.3     1  UNL1        0.1470
      8 C         138.7553  142.9289  160.7679 C.3     1  UNL1        0.1035
      9 O         139.2227  140.4016  161.1472 O.3     1  UNL1       -0.3530
     10 C         140.1291  144.2539  159.0052 C.3     1  UNL1        0.0913
     11 C         141.3298  145.0641  159.3948 C.3     1  UNL1        0.1087
     12 N         141.5115  145.4984  160.8190 N.3     1  UNL1       -0.1780
     13 H         142.2099  146.2419  160.8133 H       1  UNL1        0.1488
     14 S         141.9446  144.5055  161.8565 S.O2    1  UNL1        0.0603
     15 O         140.8187  144.9432  162.7456 O.2     1  UNL1       -0.1530
     16 O         143.0706  144.0677  160.9674 O.2     1  UNL1       -0.1530
     17 C         143.2441  141.5265  164.9689 C.ar    1  UNL1        0.1388
     18 C         142.4603  141.0695  163.7744 C.ar    1  UNL1        0.0383
     19 C         142.0272  142.0625  162.7369 C.ar    1  UNL1        0.0230
     20 C         142.3778  143.5125  162.8939 C.ar    1  UNL1        0.1221
     21 C         143.1615  143.9695  164.0885 C.ar    1  UNL1        0.0230
     22 C         143.5947  142.9765  165.1260 C.ar    1  UNL1        0.0383
     23 C         142.7163  139.4894  166.4926 C.3     1  UNL1        0.2525
     24 O         143.6772  140.5336  166.0064 O.3     1  UNL1       -0.4714
     25 C         138.6184  137.8334  162.5753 C.3     1  UNL1        0.0761
     26 C         139.3256  137.5032  163.8563 C.3     1  UNL1        0.0646
     27 C         138.7399  137.9327  165.1686 C.3     1  UNL1        0.2068
     28 O         138.3214  139.3587  165.3722 O.3     1  UNL1       -0.4754
     29 C         139.0373  140.2146  166.3748 C.ar    1  UNL1        0.1386
     30 C         139.6225  141.5305  165.9557 C.ar    1  UNL1        0.0376
     31 C         140.3383  142.3863  166.9582 C.ar    1  UNL1        0.0134
     32 C         140.4690  141.9262  168.3799 C.ar    1  UNL1        0.0686
     33 C         139.8838  140.6102  168.7990 C.ar    1  UNL1        0.0134
     34 C         139.1679  139.7544  167.7965 C.ar    1  UNL1        0.0376
     35 C         141.1848  142.7820  169.3825 C.1     1  UNL1        0.1004
     36 N         141.9007  143.6378  170.3850 N.1     1  UNL1       -0.1908
@<TRIPOS>BOND
     1    23    24    1
     2    24    17    1
     3    17    18   ar
     4    18    19   ar
     5    19    20   ar
     6    20    14    1
     7    14    15    2
     8    14    16    2
     9    14    12    1
    10    12    11    1
    11    11    10    1
    12    10     1    1
    13     1     2    1
    14     2     3    1
    15     3     4    1
    16     4     5    1
    17     5    25    1
    18    25    26    1
    19    26    27    1
    20    27    28    1
    21    28    29    1
    22    29    30   ar
    23    30    31   ar
    24    31    32   ar
    25    32    35    1
    26    35    36    3
    27    32    33   ar
    28    33    34   ar
    29     5     6    1
    30     6     7    1
    31     7     8    1
    32     7     9    1
    33    20    21   ar
    34    21    22   ar
    35    22    17   ar
    36     8     1    1
    37     9     3    1
    38    34    29   ar
    39    12    13    1
@<TRIPOS>MOLECULE
*****
 36 39 0 0 0
SMALL
GASTEIGER

@<TRIPOS>ATOM
      1 N         138.7432  140.2803  164.8722 N.3     1  UNL1       -0.2673
      2 C         139.2065  141.4792  165.6455 C.3     1  UNL1        0.1035
      3 C         139.3267  142.8102  164.9645 C.3     1  UNL1        0.1470
      4 C         139.4470  144.1414  164.2835 C.3     1  UNL1        0.1035
      5 N         139.1038  144.2736  162.8293 N.3     1  UNL1       -0.2684
      6 C         138.6405  143.0746  162.0560 C.3     1  UNL1        0.1035
      7 C         138.5203  141.7435  162.7370 C.3     1  UNL1        0.1470
      8 C         138.4000  140.4125  163.4180 C.3     1  UNL1        0.1035
      9 O         138.9836  142.9424  163.5103 O.3     1  UNL1       -0.3530
     10 C         138.6229  138.9492  165.5532 C.3     1  UNL1        0.0913
     11 C         138.8352  137.6857  164.7731 C.3     1  UNL1        0.1087
     12 N         140.2257  137.1754  164.5358 N.3     1  UNL1       -0.1780
     13 H         140.7790  137.4382  165.3514 H       1  UNL1        0.1488
     14 S         140.9938  137.6250  163.3284 S.O2    1  UNL1        0.0603
     15 O         139.7987  137.3485  162.4652 O.2     1  UNL1       -0.1530
     16 O         142.1889  137.9016  164.1917 O.2     1  UNL1       -0.1530
     17 C         143.2981  138.9740  159.7062 C.ar    1  UNL1        0.1388
     18 C         141.7983  138.9949  159.6916 C.ar    1  UNL1        0.0383
     19 C         141.0302  138.5453  160.8991 C.ar    1  UNL1        0.0230
     20 C         141.7618  138.0747  162.1210 C.ar    1  UNL1        0.1221
     21 C         143.2617  138.0537  162.1356 C.ar    1  UNL1        0.0230
     22 C         144.0298  138.5034  160.9282 C.ar    1  UNL1        0.0383
     23 C         143.3507  139.6699  157.2036 C.3     1  UNL1        0.2525
     24 O         144.0661  139.4236  158.4988 O.3     1  UNL1       -0.4714
     25 C         139.2240  145.6046  162.1483 C.3     1  UNL1        0.0761
     26 C         140.3274  145.8450  161.1609 C.3     1  UNL1        0.0646
     27 C         141.2828  144.7400  160.8201 C.3     1  UNL1        0.2068
     28 O         142.5646  144.5943  161.5854 O.3     1  UNL1       -0.4754
     29 C         142.6509  143.6238  162.7260 C.ar    1  UNL1        0.1386
     30 C         143.1148  144.0902  164.0740 C.ar    1  UNL1        0.0376
     31 C         143.2011  143.1198  165.2145 C.ar    1  UNL1        0.0134
     32 C         142.8236  141.6830  165.0070 C.ar    1  UNL1        0.0686
     33 C         142.3597  141.2166  163.6590 C.ar    1  UNL1        0.0134
     34 C         142.2734  142.1870  162.5185 C.ar    1  UNL1        0.0376
     35 C         142.9099  140.7126  166.1476 C.1     1  UNL1        0.1004
     36 N         142.9962  139.7422  167.2881 N.1     1  UNL1       -0.1908
@<TRIPOS>BOND
     1    23    24    1
     2    24    17    1
     3    17    18   ar
     4    18    19   ar
     5    19    20   ar
     6    20    14    1
     7    14    15    2
     8    14    16    2
     9    14    12    1
    10    12    11    1
    11    11    10    1
    12    10     1    1
    13     1     2    1
    14     2     3    1
    15     3     4    1
    16     4     5    1
    17     5    25    1
    18    25    26    1
    19    26    27    1
    20    27    28    1
    21    28    29    1
    22    29    30   ar
    23    30    31   ar
    24    31    32   ar
    25    32    35    1
    26    35    36    3
    27    32    33   ar
    28    33    34   ar
    29     5     6    1
    30     6     7    1
    31     7     8    1
    32     7     9    1
    33    20    21   ar
    34    21    22   ar
    35    22    17   ar
    36     8     1    1
    37     9     3    1
    38    34    29   ar
    39    12    13    1
@<TRIPOS>MOLECULE
*****
 36 39 0 0 0
SMALL
GASTEIGER

@<TRIPOS>ATOM
      1 N         144.7844  141.4122  164.4619 N.3     1  UNL1       -0.2673
      2 C         144.1590  142.4651  165.3280 C.3     1  UNL1        0.1035
      3 C         143.1155  142.0845  166.3360 C.3     1  UNL1        0.1470
      4 C         142.0719  141.7039  167.3440 C.3     1  UNL1        0.1035
      5 N         141.6537  140.2704  167.4859 N.3     1  UNL1       -0.2684
      6 C         142.2792  139.2174  166.6197 C.3     1  UNL1        0.1035
      7 C         143.3227  139.5981  165.6117 C.3     1  UNL1        0.1470
      8 C         144.3663  139.9787  164.6038 C.3     1  UNL1        0.1035
      9 O         142.6973  140.6510  166.4779 O.3     1  UNL1       -0.3530
     10 C         145.8281  141.7928  163.4538 C.3     1  UNL1        0.0913
     11 C         145.4635  141.9064  162.0033 C.3     1  UNL1        0.1087
     12 N         144.7620  143.1331  161.5000 N.3     1  UNL1       -0.1780
     13 H         145.3110  143.9346  161.8107 H       1  UNL1        0.1488
     14 S         143.3409  143.4009  161.8984 S.O2    1  UNL1        0.0603
     15 O         143.7422  144.7471  162.4244 O.2     1  UNL1       -0.1530
     16 O         142.9397  142.0548  161.3724 O.2     1  UNL1       -0.1530
     17 C         139.0777  144.2047  163.0938 C.ar    1  UNL1        0.1388
     18 C         139.3735  143.4646  161.8231 C.ar    1  UNL1        0.0383
     19 C         140.7946  143.1966  161.4246 C.ar    1  UNL1        0.0230
     20 C         141.9199  143.6688  162.2969 C.ar    1  UNL1        0.1221
     21 C         141.6240  144.4090  163.5676 C.ar    1  UNL1        0.0230
     22 C         140.2029  144.6769  163.9660 C.ar    1  UNL1        0.0383
     23 C         137.2572  144.4053  164.9365 C.3     1  UNL1        0.2525
     24 O         137.6566  144.4726  163.4922 O.3     1  UNL1       -0.4714
     25 C         140.6102  139.8897  168.4939 C.3     1  UNL1        0.0761
     26 C         139.1569  140.0914  168.1816 C.3     1  UNL1        0.0646
     27 C         138.4382  139.1181  167.2950 C.3     1  UNL1        0.2068
     28 O         138.1945  139.4552  165.8538 O.3     1  UNL1       -0.4754
     29 C         139.2135  139.0900  164.8154 C.ar    1  UNL1        0.1386
     30 C         139.8204  140.1563  163.9524 C.ar    1  UNL1        0.0376
     31 C         140.8393  139.7910  162.9141 C.ar    1  UNL1        0.0134
     32 C         141.2515  138.3594  162.7387 C.ar    1  UNL1        0.0686
     33 C         140.6446  137.2931  163.6016 C.ar    1  UNL1        0.0134
     34 C         139.6257  137.6584  164.6400 C.ar    1  UNL1        0.0376
     35 C         142.2705  137.9942  161.7002 C.1     1  UNL1        0.1004
     36 N         143.2894  137.6290  160.6618 N.1     1  UNL1       -0.1908
@<TRIPOS>BOND
     1    23    24    1
     2    24    17    1
     3    17    18   ar
     4    18    19   ar
     5    19    20   ar
     6    20    14    1
     7    14    15    2
     8    14    16    2
     9    14    12    1
    10    12    11    1
    11    11    10    1
    12    10     1    1
    13     1     2    1
    14     2     3    1
    15     3     4    1
    16     4     5    1
    17     5    25    1
    18    25    26    1
    19    26    27    1
    20    27    28    1
    21    28    29    1
    22    29    30   ar
    23    30    31   ar
    24    31    32   ar
    25    32    35    1
    26    35    36    3
    27    32    33   ar
    28    33    34   ar
    29     5     6    1
    30     6     7    1
    31     7     8    1
    32     7     9    1
    33    20    21   ar
    34    21    22   ar
    35    22    17   ar
    36     8     1    1
    37     9     3    1
    38    34    29   ar
    39    12    13    1
