@<TRIPOS>MOLECULE
*****
 34 37 0 0 0
SMALL
GASTEIGER

@<TRIPOS>ATOM
      1 C         139.1863  140.6252  166.2196 C.ar    1  UNL1        0.1432
      2 C         139.4491  139.8967  167.5042 C.ar    1  UNL1        0.0384
      3 C         140.3706  140.4904  168.5282 C.ar    1  UNL1        0.0215
      4 C         141.0292  141.8126  168.2676 C.ar    1  UNL1        0.1061
      5 C         140.7664  142.5411  166.9829 C.ar    1  UNL1        0.0259
      6 C         139.8449  141.9475  165.9589 C.ar    1  UNL1        0.0888
      7 C         139.5822  142.6760  164.6744 C.2     1  UNL1        0.2525
      8 O         138.4438  143.6485  164.5830 O.2     1  UNL1       -0.2698
      9 N         140.4578  142.4321  163.4811 N.am    1  UNL1       -0.2660
     10 C         141.6269  141.4942  163.4224 C.3     1  UNL1        0.1236
     11 C         142.2096  141.5658  162.0421 C.ar    1  UNL1        0.0338
     12 C         143.2924  141.0304  161.1527 C.ar    1  UNL1        0.0991
     13 N         143.1526  141.6815  159.8086 N.ar    1  UNL1       -0.2271
     14 N         141.9834  142.6195  159.8674 N.ar    1  UNL1       -0.1680
     15 C         141.4007  142.5479  161.2477 C.ar    1  UNL1        0.0981
     16 C         140.3179  143.0834  162.1371 C.3     1  UNL1        0.1414
     17 C         144.0282  141.4377  158.6155 C.ar    1  UNL1        0.1042
     18 C         143.8372  140.2034  157.7848 C.ar    1  UNL1        0.1181
     19 N         144.7128  139.9594  156.5915 N.ar    1  UNL1       -0.2384
     20 C         145.7794  140.9499  156.2289 C.ar    1  UNL1        0.1285
     21 C         145.9703  142.1843  157.0596 C.ar    1  UNL1        0.1607
     22 F         147.0369  143.1747  156.6970 F       1  UNL1       -0.2025
     23 C         145.0948  142.4281  158.2528 C.ar    1  UNL1        0.0520
     24 S         141.9506  142.4063  169.2915 S.O2    1  UNL1        0.0105
     25 C         142.8720  142.9999  170.3155 C.3     1  UNL1        0.1816
     26 O         142.9828  141.3681  168.9647 O.2     1  UNL1       -0.1686
     27 O         140.9184  143.4445  169.6184 O.2     1  UNL1       -0.1686
     28 O         138.2649  140.0316  165.1956 O.3     1  UNL1       -0.4702
     29 C         138.4687  139.3107  162.7079 C.3     1  UNL1        0.0566
     30 C         138.8039  139.0963  164.1541 C.3     1  UNL1        0.2599
     31 C         139.6782  137.9466  164.5590 C.3     1  UNL1        0.4340
     32 F         140.5524  136.7969  164.9638 F       1  UNL1       -0.1664
     33 F         138.5638  137.3945  165.3977 F       1  UNL1       -0.1664
     34 F         140.7926  138.4987  163.7203 F       1  UNL1       -0.1664
@<TRIPOS>BOND
     1    30    29    1
     2    30    28    1
     3    28     1    1
     4     1     2   ar
     5     2     3   ar
     6     3     4   ar
     7     4    24    1
     8    24    25    1
     9    24    26    2
    10    24    27    2
    11     4     5   ar
    12     5     6   ar
    13     6     7    1
    14     7     8    2
    15     7     9   am
    16     9    10    1
    17    10    11    1
    18    11    12   ar
    19    12    13   ar
    20    13    17    1
    21    17    18   ar
    22    18    19   ar
    23    19    20   ar
    24    20    21   ar
    25    21    22    1
    26    21    23   ar
    27    13    14   ar
    28    14    15   ar
    29    15    16    1
    30    30    31    1
    31    31    32    1
    32    31    33    1
    33    31    34    1
    34     6     1   ar
    35    16     9    1
    36    15    11   ar
    37    23    17   ar
@<TRIPOS>MOLECULE
*****
 34 37 0 0 0
SMALL
GASTEIGER

@<TRIPOS>ATOM
      1 C         139.8432  141.1553  164.8439 C.ar    1  UNL1        0.1432
      2 C         138.7250  142.1265  165.0806 C.ar    1  UNL1        0.0384
      3 C         138.6745  143.4140  164.3126 C.ar    1  UNL1        0.0215
      4 C         139.7424  143.7303  163.3078 C.ar    1  UNL1        0.1061
      5 C         140.8608  142.7590  163.0711 C.ar    1  UNL1        0.0259
      6 C         140.9112  141.4715  163.8391 C.ar    1  UNL1        0.0888
      7 C         142.0295  140.5003  163.6023 C.2     1  UNL1        0.2525
      8 O         143.0591  140.2676  164.6681 O.2     1  UNL1       -0.2698
      9 N         142.1183  139.7617  162.2998 N.am    1  UNL1       -0.2660
     10 C         141.1673  139.8899  161.1469 C.3     1  UNL1        0.1236
     11 C         141.6350  138.9727  160.0561 C.ar    1  UNL1        0.0338
     12 C         141.3363  138.4851  158.6693 C.ar    1  UNL1        0.0991
     13 N         142.3917  137.4887  158.2909 N.ar    1  UNL1       -0.2271
     14 N         143.3428  137.3605  159.4438 N.ar    1  UNL1       -0.1680
     15 C         142.8751  138.2777  160.5347 C.ar    1  UNL1        0.0981
     16 C         143.1738  138.7653  161.9214 C.3     1  UNL1        0.1414
     17 C         142.4805  136.7502  156.9884 C.ar    1  UNL1        0.1042
     18 C         141.8309  137.3151  155.7601 C.ar    1  UNL1        0.1181
     19 N         141.9197  136.5765  154.4575 N.ar    1  UNL1       -0.2384
     20 C         142.6582  135.2730  154.3833 C.ar    1  UNL1        0.1285
     21 C         143.3078  134.7081  155.6117 C.ar    1  UNL1        0.1607
     22 F         144.0463  133.4045  155.5374 F       1  UNL1       -0.2025
     23 C         143.2190  135.4466  156.9142 C.ar    1  UNL1        0.0520
     24 S         139.6920  145.0178  162.5398 S.O2    1  UNL1        0.0105
     25 C         139.6416  146.3052  161.7718 C.3     1  UNL1        0.1816
     26 O         141.1893  145.0995  162.5785 O.2     1  UNL1       -0.1686
     27 O         138.1947  144.9360  162.5011 O.2     1  UNL1       -0.1686
     28 O         139.8937  139.8678  165.6119 O.3     1  UNL1       -0.4702
     29 C         138.9930  138.2091  163.8265 C.3     1  UNL1        0.0566
     30 C         138.9902  138.7322  165.2323 C.3     1  UNL1        0.2599
     31 C         138.0838  138.1197  166.2587 C.3     1  UNL1        0.4340
     32 F         137.1775  137.5073  167.2851 F       1  UNL1       -0.1664
     33 F         137.9719  139.4456  166.9512 F       1  UNL1       -0.1664
     34 F         138.1957  136.7938  165.5663 F       1  UNL1       -0.1664
@<TRIPOS>BOND
     1    30    29    1
     2    30    28    1
     3    28     1    1
     4     1     2   ar
     5     2     3   ar
     6     3     4   ar
     7     4    24    1
     8    24    25    1
     9    24    26    2
    10    24    27    2
    11     4     5   ar
    12     5     6   ar
    13     6     7    1
    14     7     8    2
    15     7     9   am
    16     9    10    1
    17    10    11    1
    18    11    12   ar
    19    12    13   ar
    20    13    17    1
    21    17    18   ar
    22    18    19   ar
    23    19    20   ar
    24    20    21   ar
    25    21    22    1
    26    21    23   ar
    27    13    14   ar
    28    14    15   ar
    29    15    16    1
    30    30    31    1
    31    31    32    1
    32    31    33    1
    33    31    34    1
    34     6     1   ar
    35    16     9    1
    36    15    11   ar
    37    23    17   ar
@<TRIPOS>MOLECULE
*****
 34 37 0 0 0
SMALL
GASTEIGER

@<TRIPOS>ATOM
      1 C         139.3504  140.9354  164.2937 C.ar    1  UNL1        0.1432
      2 C         138.2235  141.9017  164.5088 C.ar    1  UNL1        0.0384
      3 C         138.2768  143.2662  163.8883 C.ar    1  UNL1        0.0215
      4 C         139.4570  143.6646  163.0525 C.ar    1  UNL1        0.1061
      5 C         140.5839  142.6982  162.8374 C.ar    1  UNL1        0.0259
      6 C         140.5307  141.3336  163.4580 C.ar    1  UNL1        0.0888
      7 C         141.6576  140.3673  163.2428 C.2     1  UNL1        0.2525
      8 O         142.6672  140.1389  164.3284 O.2     1  UNL1       -0.2698
      9 N         141.7749  139.6295  161.9421 N.am    1  UNL1       -0.2660
     10 C         140.8458  139.7538  160.7711 C.3     1  UNL1        0.1236
     11 C         141.3386  138.8389  159.6893 C.ar    1  UNL1        0.0338
     12 C         141.0690  138.3503  158.2970 C.ar    1  UNL1        0.0991
     13 N         142.1360  137.3586  157.9390 N.ar    1  UNL1       -0.2271
     14 N         143.0650  137.2343  159.1101 N.ar    1  UNL1       -0.1680
     15 C         142.5722  138.1492  160.1919 C.ar    1  UNL1        0.0981
     16 C         142.8418  138.6378  161.5842 C.3     1  UNL1        0.1414
     17 C         142.2533  136.6208  156.6384 C.ar    1  UNL1        0.1042
     18 C         143.5379  135.9351  156.2782 C.ar    1  UNL1        0.1181
     19 N         143.6552  135.1973  154.9775 N.ar    1  UNL1       -0.2384
     20 C         142.4879  135.1450  154.0369 C.ar    1  UNL1        0.1285
     21 C         141.2033  135.8307  154.3971 C.ar    1  UNL1        0.1607
     22 F         140.0359  135.7784  153.4564 F       1  UNL1       -0.2025
     23 C         141.0859  136.5685  155.6977 C.ar    1  UNL1        0.0520
     24 S         139.5103  145.0291  162.4320 S.O2    1  UNL1        0.0105
     25 C         139.5635  146.3937  161.8114 C.3     1  UNL1        0.1816
     26 O         138.0113  145.0853  162.4268 O.2     1  UNL1       -0.1686
     27 O         141.0093  144.9729  162.4373 O.2     1  UNL1       -0.1686
     28 O         139.2971  139.5708  164.9143 O.3     1  UNL1       -0.4702
     29 C         139.9244  140.1752  167.3620 C.3     1  UNL1        0.0566
     30 C         139.0631  139.4261  166.3888 C.3     1  UNL1        0.2599
     31 C         137.9678  138.5322  166.8902 C.3     1  UNL1        0.4340
     32 F         136.8725  137.6384  167.3916 F       1  UNL1       -0.1664
     33 F         137.9212  139.3088  168.1728 F       1  UNL1       -0.1664
     34 F         138.0144  137.7557  165.6077 F       1  UNL1       -0.1664
@<TRIPOS>BOND
     1    30    29    1
     2    30    28    1
     3    28     1    1
     4     1     2   ar
     5     2     3   ar
     6     3     4   ar
     7     4    24    1
     8    24    25    1
     9    24    26    2
    10    24    27    2
    11     4     5   ar
    12     5     6   ar
    13     6     7    1
    14     7     8    2
    15     7     9   am
    16     9    10    1
    17    10    11    1
    18    11    12   ar
    19    12    13   ar
    20    13    17    1
    21    17    18   ar
    22    18    19   ar
    23    19    20   ar
    24    20    21   ar
    25    21    22    1
    26    21    23   ar
    27    13    14   ar
    28    14    15   ar
    29    15    16    1
    30    30    31    1
    31    31    32    1
    32    31    33    1
    33    31    34    1
    34     6     1   ar
    35    16     9    1
    36    15    11   ar
    37    23    17   ar
@<TRIPOS>MOLECULE
*****
 34 37 0 0 0
SMALL
GASTEIGER

@<TRIPOS>ATOM
      1 C         139.2830  141.1950  164.6825 C.ar    1  UNL1        0.1432
      2 C         140.1623  141.6216  165.8204 C.ar    1  UNL1        0.0384
      3 C         141.2681  142.6073  165.5850 C.ar    1  UNL1        0.0215
      4 C         141.4948  143.1665  164.2117 C.ar    1  UNL1        0.1061
      5 C         140.6154  142.7398  163.0738 C.ar    1  UNL1        0.0259
      6 C         139.5096  141.7541  163.3091 C.ar    1  UNL1        0.0888
      7 C         138.6304  141.3276  162.1711 C.2     1  UNL1        0.2525
      8 O         137.1897  141.7439  162.1396 O.2     1  UNL1       -0.2698
      9 N         139.1919  140.4847  161.0647 N.am    1  UNL1       -0.2660
     10 C         140.6055  139.9940  160.9606 C.3     1  UNL1        0.1236
     11 C         140.7255  139.1905  159.6996 C.ar    1  UNL1        0.0338
     12 C         141.6734  138.3907  158.8559 C.ar    1  UNL1        0.0991
     13 N         140.9199  137.8905  157.6593 N.ar    1  UNL1       -0.2271
     14 N         139.5062  138.3812  157.7634 N.ar    1  UNL1       -0.1680
     15 C         139.3861  139.1846  159.0244 C.ar    1  UNL1        0.0981
     16 C         138.4382  139.9845  159.8680 C.3     1  UNL1        0.1414
     17 C         141.4813  137.0476  156.5529 C.ar    1  UNL1        0.1042
     18 C         140.9422  137.1827  155.1596 C.ar    1  UNL1        0.1181
     19 N         141.5037  136.3398  154.0531 N.ar    1  UNL1       -0.2384
     20 C         142.6042  135.3618  154.3399 C.ar    1  UNL1        0.1285
     21 C         143.1433  135.2266  155.7332 C.ar    1  UNL1        0.1607
     22 F         144.2439  134.2485  156.0199 F       1  UNL1       -0.2025
     23 C         142.5819  136.0695  156.8396 C.ar    1  UNL1        0.0520
     24 S         142.6006  144.1522  163.9764 S.O2    1  UNL1        0.0105
     25 C         143.7065  145.1380  163.7411 C.3     1  UNL1        0.1816
     26 O         143.6130  143.0938  164.3001 O.2     1  UNL1       -0.1686
     27 O         141.5882  145.2107  163.6528 O.2     1  UNL1       -0.1686
     28 O         138.1771  140.2092  164.9178 O.3     1  UNL1       -0.4702
     29 C         138.0443  138.1226  166.4599 C.3     1  UNL1        0.0566
     30 C         138.5004  138.7692  165.1856 C.3     1  UNL1        0.2599
     31 C         139.2799  137.9758  164.1791 C.3     1  UNL1        0.4340
     32 F         140.0592  137.1825  163.1726 F       1  UNL1       -0.1664
     33 F         138.2067  138.2158  163.1589 F       1  UNL1       -0.1664
     34 F         140.3531  137.7359  165.1992 F       1  UNL1       -0.1664
@<TRIPOS>BOND
     1    30    29    1
     2    30    28    1
     3    28     1    1
     4     1     2   ar
     5     2     3   ar
     6     3     4   ar
     7     4    24    1
     8    24    25    1
     9    24    26    2
    10    24    27    2
    11     4     5   ar
    12     5     6   ar
    13     6     7    1
    14     7     8    2
    15     7     9   am
    16     9    10    1
    17    10    11    1
    18    11    12   ar
    19    12    13   ar
    20    13    17    1
    21    17    18   ar
    22    18    19   ar
    23    19    20   ar
    24    20    21   ar
    25    21    22    1
    26    21    23   ar
    27    13    14   ar
    28    14    15   ar
    29    15    16    1
    30    30    31    1
    31    31    32    1
    32    31    33    1
    33    31    34    1
    34     6     1   ar
    35    16     9    1
    36    15    11   ar
    37    23    17   ar
@<TRIPOS>MOLECULE
*****
 34 37 0 0 0
SMALL
GASTEIGER

@<TRIPOS>ATOM
      1 C         143.3865  140.3590  165.6855 C.ar    1  UNL1        0.1432
      2 C         142.8258  139.2924  166.5787 C.ar    1  UNL1        0.0384
      3 C         141.8703  139.6584  167.6755 C.ar    1  UNL1        0.0215
      4 C         141.4754  141.0910  167.8792 C.ar    1  UNL1        0.1061
      5 C         142.0361  142.1577  166.9859 C.ar    1  UNL1        0.0259
      6 C         142.9917  141.7918  165.8891 C.ar    1  UNL1        0.0888
      7 C         143.5523  142.8585  164.9959 C.2     1  UNL1        0.2525
      8 O         144.7792  143.6153  165.4105 O.2     1  UNL1       -0.2698
      9 N         142.8860  143.1684  163.6883 N.am    1  UNL1       -0.2660
     10 C         141.6594  142.4988  163.1432 C.3     1  UNL1        0.1236
     11 C         141.3447  143.1190  161.8142 C.ar    1  UNL1        0.0338
     12 C         140.3921  143.0884  160.6559 C.ar    1  UNL1        0.0991
     13 N         140.8354  144.1223  159.6636 N.ar    1  UNL1       -0.2271
     14 N         142.0620  144.7919  160.2088 N.ar    1  UNL1       -0.1680
     15 C         142.3767  144.1718  161.5378 C.ar    1  UNL1        0.0981
     16 C         143.3293  144.2024  162.6961 C.3     1  UNL1        0.1414
     17 C         140.1691  144.4323  158.3561 C.ar    1  UNL1        0.1042
     18 C         139.3311  143.3906  157.6758 C.ar    1  UNL1        0.1181
     19 N         138.6648  143.7005  156.3681 N.ar    1  UNL1       -0.2384
     20 C         138.8365  145.0521  155.7407 C.ar    1  UNL1        0.1285
     21 C         139.6746  146.0938  156.4209 C.ar    1  UNL1        0.1607
     22 F         139.8463  147.4455  155.7934 F       1  UNL1       -0.2025
     23 C         140.3408  145.7839  157.7285 C.ar    1  UNL1        0.0520
     24 S         140.5199  141.4570  168.9760 S.O2    1  UNL1        0.0105
     25 C         139.5643  141.8230  170.0728 C.3     1  UNL1        0.1816
     26 O         140.5529  142.8879  168.5273 O.2     1  UNL1       -0.1686
     27 O         140.4869  140.0260  169.4246 O.2     1  UNL1       -0.1686
     28 O         144.3420  139.9931  164.5887 O.3     1  UNL1       -0.4702
     29 C         142.9185  138.3902  163.1210 C.3     1  UNL1        0.0566
     30 C         143.8189  139.5836  163.2438 C.3     1  UNL1        0.2599
     31 C         144.1961  140.3675  162.0219 C.3     1  UNL1        0.4340
     32 F         144.5733  141.1514  160.8000 F       1  UNL1       -0.1664
     33 F         143.0558  139.7460  161.2711 F       1  UNL1       -0.1664
     34 F         145.3364  140.9890  162.7726 F       1  UNL1       -0.1664
@<TRIPOS>BOND
     1    30    29    1
     2    30    28    1
     3    28     1    1
     4     1     2   ar
     5     2     3   ar
     6     3     4   ar
     7     4    24    1
     8    24    25    1
     9    24    26    2
    10    24    27    2
    11     4     5   ar
    12     5     6   ar
    13     6     7    1
    14     7     8    2
    15     7     9   am
    16     9    10    1
    17    10    11    1
    18    11    12   ar
    19    12    13   ar
    20    13    17    1
    21    17    18   ar
    22    18    19   ar
    23    19    20   ar
    24    20    21   ar
    25    21    22    1
    26    21    23   ar
    27    13    14   ar
    28    14    15   ar
    29    15    16    1
    30    30    31    1
    31    31    32    1
    32    31    33    1
    33    31    34    1
    34     6     1   ar
    35    16     9    1
    36    15    11   ar
    37    23    17   ar
@<TRIPOS>MOLECULE
*****
 34 37 0 0 0
SMALL
GASTEIGER

@<TRIPOS>ATOM
      1 C         141.8911  139.1305  166.3282 C.ar    1  UNL1        0.1432
      2 C         142.8110  139.6570  167.3896 C.ar    1  UNL1        0.0384
      3 C         142.2865  140.5875  168.4427 C.ar    1  UNL1        0.0215
      4 C         140.8420  140.9916  168.4344 C.ar    1  UNL1        0.1061
      5 C         139.9220  140.4651  167.3729 C.ar    1  UNL1        0.0259
      6 C         140.4466  139.5346  166.3199 C.ar    1  UNL1        0.0888
      7 C         139.5266  139.0081  165.2585 C.2     1  UNL1        0.2525
      8 O         138.7395  137.7547  165.5025 O.2     1  UNL1       -0.2698
      9 N         139.3936  139.7351  163.9532 N.am    1  UNL1       -0.2660
     10 C         140.1128  140.9938  163.5678 C.3     1  UNL1        0.1236
     11 C         139.6818  141.3676  162.1805 C.ar    1  UNL1        0.0338
     12 C         139.8598  142.3765  161.0849 C.ar    1  UNL1        0.0991
     13 N         138.9843  141.9725  159.9358 N.ar    1  UNL1       -0.2271
     14 N         138.2651  140.7138  160.3214 N.ar    1  UNL1       -0.1680
     15 C         138.6962  140.3400  161.7086 C.ar    1  UNL1        0.0981
     16 C         138.5181  139.3310  162.8042 C.3     1  UNL1        0.1414
     17 C         138.8514  142.6994  158.6306 C.ar    1  UNL1        0.1042
     18 C         139.8049  143.8052  158.2874 C.ar    1  UNL1        0.1181
     19 N         139.6720  144.5322  156.9821 N.ar    1  UNL1       -0.2384
     20 C         138.5855  144.1533  156.0199 C.ar    1  UNL1        0.1285
     21 C         137.6318  143.0474  156.3631 C.ar    1  UNL1        0.1607
     22 F         136.5452  142.6685  155.4008 F       1  UNL1       -0.2025
     23 C         137.7648  142.3205  157.6683 C.ar    1  UNL1        0.0520
     24 S         140.3175  141.9222  169.4874 S.O2    1  UNL1        0.0105
     25 C         139.7929  142.8528  170.5405 C.3     1  UNL1        0.1816
     26 O         141.4268  142.8864  169.1879 O.2     1  UNL1       -0.1686
     27 O         139.2081  140.9579  169.7869 O.2     1  UNL1       -0.1686
     28 O         142.4156  138.1999  165.2752 O.3     1  UNL1       -0.4702
     29 C         142.6384  138.2972  162.6885 C.3     1  UNL1        0.0566
     30 C         143.0782  138.7528  164.0483 C.3     1  UNL1        0.2599
     31 C         144.1806  139.7613  164.1813 C.3     1  UNL1        0.4340
     32 F         145.2829  140.7699  164.3142 F       1  UNL1       -0.1664
     33 F         143.3910  140.7333  163.3555 F       1  UNL1       -0.1664
     34 F         144.9702  138.7894  165.0070 F       1  UNL1       -0.1664
@<TRIPOS>BOND
     1    30    29    1
     2    30    28    1
     3    28     1    1
     4     1     2   ar
     5     2     3   ar
     6     3     4   ar
     7     4    24    1
     8    24    25    1
     9    24    26    2
    10    24    27    2
    11     4     5   ar
    12     5     6   ar
    13     6     7    1
    14     7     8    2
    15     7     9   am
    16     9    10    1
    17    10    11    1
    18    11    12   ar
    19    12    13   ar
    20    13    17    1
    21    17    18   ar
    22    18    19   ar
    23    19    20   ar
    24    20    21   ar
    25    21    22    1
    26    21    23   ar
    27    13    14   ar
    28    14    15   ar
    29    15    16    1
    30    30    31    1
    31    31    32    1
    32    31    33    1
    33    31    34    1
    34     6     1   ar
    35    16     9    1
    36    15    11   ar
    37    23    17   ar
@<TRIPOS>MOLECULE
*****
 34 37 0 0 0
SMALL
GASTEIGER

@<TRIPOS>ATOM
      1 C         141.4397  142.3388  164.7291 C.ar    1  UNL1        0.1432
      2 C         140.4471  142.4477  165.8484 C.ar    1  UNL1        0.0384
      3 C         140.6912  141.7257  167.1403 C.ar    1  UNL1        0.0215
      4 C         141.9279  140.8946  167.3130 C.ar    1  UNL1        0.1061
      5 C         142.9205  140.7856  166.1936 C.ar    1  UNL1        0.0259
      6 C         142.6764  141.5076  164.9017 C.ar    1  UNL1        0.0888
      7 C         143.6691  141.3986  163.7824 C.2     1  UNL1        0.2525
      8 O         144.9932  142.0960  163.8836 O.2     1  UNL1       -0.2698
      9 N         143.3375  140.5921  162.5619 N.am    1  UNL1       -0.2660
     10 C         142.0606  139.8432  162.3200 C.3     1  UNL1        0.1236
     11 C         142.1587  139.1812  160.9775 C.ar    1  UNL1        0.0338
     12 C         141.4301  138.3092  159.9984 C.ar    1  UNL1        0.0991
     13 N         142.3174  138.1100  158.8054 N.ar    1  UNL1       -0.2271
     14 N         143.5944  138.8589  159.0474 N.ar    1  UNL1       -0.1680
     15 C         143.4963  139.5209  160.3898 C.ar    1  UNL1        0.0981
     16 C         144.2249  140.3929  161.3690 C.3     1  UNL1        0.1414
     17 C         141.9859  137.3036  157.5849 C.ar    1  UNL1        0.1042
     18 C         140.6936  137.5368  156.8600 C.ar    1  UNL1        0.1181
     19 N         140.3621  136.7304  155.6394 N.ar    1  UNL1       -0.2384
     20 C         141.3229  135.6906  155.1438 C.ar    1  UNL1        0.1285
     21 C         142.6153  135.4573  155.8688 C.ar    1  UNL1        0.1607
     22 F         143.5762  134.4174  155.3731 F       1  UNL1       -0.2025
     23 C         142.9468  136.2637  157.0892 C.ar    1  UNL1        0.0520
     24 S         142.1720  140.1725  168.6049 S.O2    1  UNL1        0.0105
     25 C         142.4161  139.4504  169.8968 C.3     1  UNL1        0.1816
     26 O         141.2613  141.1313  169.3128 O.2     1  UNL1       -0.1686
     27 O         143.0827  139.2137  167.8968 O.2     1  UNL1       -0.1686
     28 O         141.1956  143.0608  163.4372 O.3     1  UNL1       -0.4702
     29 C         142.5704  145.2094  163.9305 C.3     1  UNL1        0.0566
     30 C         141.3432  144.5521  163.3720 C.3     1  UNL1        0.2599
     31 C         140.2636  145.3860  162.7483 C.3     1  UNL1        0.4340
     32 F         139.1841  146.2199  162.1245 F       1  UNL1       -0.1664
     33 F         141.0706  145.4881  161.4879 F       1  UNL1       -0.1664
     34 F         139.4566  145.2840  164.0085 F       1  UNL1       -0.1664
@<TRIPOS>BOND
     1    30    29    1
     2    30    28    1
     3    28     1    1
     4     1     2   ar
     5     2     3   ar
     6     3     4   ar
     7     4    24    1
     8    24    25    1
     9    24    26    2
    10    24    27    2
    11     4     5   ar
    12     5     6   ar
    13     6     7    1
    14     7     8    2
    15     7     9   am
    16     9    10    1
    17    10    11    1
    18    11    12   ar
    19    12    13   ar
    20    13    17    1
    21    17    18   ar
    22    18    19   ar
    23    19    20   ar
    24    20    21   ar
    25    21    22    1
    26    21    23   ar
    27    13    14   ar
    28    14    15   ar
    29    15    16    1
    30    30    31    1
    31    31    32    1
    32    31    33    1
    33    31    34    1
    34     6     1   ar
    35    16     9    1
    36    15    11   ar
    37    23    17   ar
@<TRIPOS>MOLECULE
*****
 34 37 0 0 0
SMALL
GASTEIGER

@<TRIPOS>ATOM
      1 C         143.1713  139.5036  165.0476 C.ar    1  UNL1        0.1432
      2 C         142.3756  138.9533  166.1939 C.ar    1  UNL1        0.0384
      3 C         142.0096  139.8401  167.3470 C.ar    1  UNL1        0.0215
      4 C         142.4392  141.2773  167.3537 C.ar    1  UNL1        0.1061
      5 C         143.2348  141.8276  166.2073 C.ar    1  UNL1        0.0259
      6 C         143.6009  140.9408  165.0543 C.ar    1  UNL1        0.0888
      7 C         144.3965  141.4911  163.9079 C.2     1  UNL1        0.2525
      8 O         145.8955  141.4597  163.9520 O.2     1  UNL1       -0.2698
      9 N         143.6932  142.0728  162.7176 N.am    1  UNL1       -0.2660
     10 C         142.2079  142.1724  162.5329 C.3     1  UNL1        0.1236
     11 C         141.9484  142.8182  161.2041 C.ar    1  UNL1        0.0338
     12 C         140.8701  143.2789  160.2687 C.ar    1  UNL1        0.0991
     13 N         141.5285  143.8632  159.0541 N.ar    1  UNL1       -0.2271
     14 N         143.0138  143.7637  159.2390 N.ar    1  UNL1       -0.1680
     15 C         143.2733  143.1178  160.5677 C.ar    1  UNL1        0.0981
     16 C         144.3516  142.6572  161.5031 C.3     1  UNL1        0.1414
     17 C         140.8251  144.4449  157.8639 C.ar    1  UNL1        0.1042
     18 C         140.6225  143.6133  156.6321 C.ar    1  UNL1        0.1181
     19 N         139.9191  144.1950  155.4417 N.ar    1  UNL1       -0.2384
     20 C         139.4184  145.6084  155.4832 C.ar    1  UNL1        0.1285
     21 C         139.6211  146.4400  156.7150 C.ar    1  UNL1        0.1607
     22 F         139.1204  147.8534  156.7564 F       1  UNL1       -0.2025
     23 C         140.3244  145.8583  157.9053 C.ar    1  UNL1        0.0520
     24 S         142.0731  142.1641  168.5068 S.O2    1  UNL1        0.0105
     25 C         141.7070  143.0509  169.6598 C.3     1  UNL1        0.1816
     26 O         143.2616  141.6609  169.2711 O.2     1  UNL1       -0.1686
     27 O         140.8845  142.6673  167.7424 O.2     1  UNL1       -0.1686
     28 O         143.5373  138.6168  163.8946 O.3     1  UNL1       -0.4702
     29 C         143.0752  138.6703  161.3385 C.3     1  UNL1        0.0566
     30 C         142.5909  138.4562  162.7419 C.3     1  UNL1        0.2599
     31 C         141.1604  138.0815  162.9928 C.3     1  UNL1        0.4340
     32 F         139.7297  137.7069  163.2437 F       1  UNL1       -0.1664
     33 F         140.7100  139.3109  162.2608 F       1  UNL1       -0.1664
     34 F         141.6106  136.8521  163.7248 F       1  UNL1       -0.1664
@<TRIPOS>BOND
     1    30    29    1
     2    30    28    1
     3    28     1    1
     4     1     2   ar
     5     2     3   ar
     6     3     4   ar
     7     4    24    1
     8    24    25    1
     9    24    26    2
    10    24    27    2
    11     4     5   ar
    12     5     6   ar
    13     6     7    1
    14     7     8    2
    15     7     9   am
    16     9    10    1
    17    10    11    1
    18    11    12   ar
    19    12    13   ar
    20    13    17    1
    21    17    18   ar
    22    18    19   ar
    23    19    20   ar
    24    20    21   ar
    25    21    22    1
    26    21    23   ar
    27    13    14   ar
    28    14    15   ar
    29    15    16    1
    30    30    31    1
    31    31    32    1
    32    31    33    1
    33    31    34    1
    34     6     1   ar
    35    16     9    1
    36    15    11   ar
    37    23    17   ar
@<TRIPOS>MOLECULE
*****
 34 37 0 0 0
SMALL
GASTEIGER

@<TRIPOS>ATOM
      1 C         141.9925  142.1941  165.4956 C.ar    1  UNL1        0.1432
      2 C         142.5333  140.8739  165.9589 C.ar    1  UNL1        0.0384
      3 C         141.6543  139.6585  165.9501 C.ar    1  UNL1        0.0215
      4 C         140.2344  139.7632  165.4781 C.ar    1  UNL1        0.1061
      5 C         139.6935  141.0834  165.0149 C.ar    1  UNL1        0.0259
      6 C         140.5725  142.2989  165.0236 C.ar    1  UNL1        0.0888
      7 C         140.0315  143.6190  164.5604 C.2     1  UNL1        0.2525
      8 O         139.3718  144.5443  165.5394 O.2     1  UNL1       -0.2698
      9 N         140.1503  144.0138  163.1181 N.am    1  UNL1       -0.2660
     10 C         140.7810  143.1970  162.0295 C.3     1  UNL1        0.1236
     11 C         140.6797  143.9731  160.7499 C.ar    1  UNL1        0.0338
     12 C         141.0069  143.9480  159.2863 C.ar    1  UNL1        0.0991
     13 N         140.5159  145.2289  158.6794 N.ar    1  UNL1       -0.2271
     14 N         139.8852  146.0457  159.7681 N.ar    1  UNL1       -0.1680
     15 C         139.9865  145.2695  161.0477 C.ar    1  UNL1        0.0981
     16 C         139.6593  145.2947  162.5114 C.3     1  UNL1        0.1414
     17 C         140.6347  145.6237  157.2373 C.ar    1  UNL1        0.1042
     18 C         141.7039  145.0155  156.3788 C.ar    1  UNL1        0.1181
     19 N         141.8227  145.4103  154.9365 N.ar    1  UNL1       -0.2384
     20 C         140.8723  146.4133  154.3528 C.ar    1  UNL1        0.1285
     21 C         139.8030  147.0214  155.2113 C.ar    1  UNL1        0.1607
     22 F         138.8526  148.0244  154.6275 F       1  UNL1       -0.2025
     23 C         139.6843  146.6267  156.6534 C.ar    1  UNL1        0.0520
     24 S         139.3554  138.5478  165.4694 S.O2    1  UNL1        0.0105
     25 C         138.4764  137.3324  165.4606 C.3     1  UNL1        0.1816
     26 O         138.3095  139.2986  166.2391 O.2     1  UNL1       -0.1686
     27 O         140.4013  137.7970  164.6997 O.2     1  UNL1       -0.1686
     28 O         142.8715  143.4095  165.5044 O.3     1  UNL1       -0.4702
     29 C         143.5125  145.0447  163.5900 C.3     1  UNL1        0.0566
     30 C         143.7069  143.7395  164.3031 C.3     1  UNL1        0.2599
     31 C         144.7368  142.7643  163.8151 C.3     1  UNL1        0.4340
     32 F         145.7668  141.7891  163.3271 F       1  UNL1       -0.1664
     33 F         145.4901  142.9149  165.1035 F       1  UNL1       -0.1664
     34 F         143.9837  142.6136  162.5266 F       1  UNL1       -0.1664
@<TRIPOS>BOND
     1    30    29    1
     2    30    28    1
     3    28     1    1
     4     1     2   ar
     5     2     3   ar
     6     3     4   ar
     7     4    24    1
     8    24    25    1
     9    24    26    2
    10    24    27    2
    11     4     5   ar
    12     5     6   ar
    13     6     7    1
    14     7     8    2
    15     7     9   am
    16     9    10    1
    17    10    11    1
    18    11    12   ar
    19    12    13   ar
    20    13    17    1
    21    17    18   ar
    22    18    19   ar
    23    19    20   ar
    24    20    21   ar
    25    21    22    1
    26    21    23   ar
    27    13    14   ar
    28    14    15   ar
    29    15    16    1
    30    30    31    1
    31    31    32    1
    32    31    33    1
    33    31    34    1
    34     6     1   ar
    35    16     9    1
    36    15    11   ar
    37    23    17   ar
