@<TRIPOS>MOLECULE
*****
 23 25 0 0 0
SMALL
GASTEIGER

@<TRIPOS>ATOM
      1 C         139.0583  142.5511  163.6234 C.ar    1  UNL1        0.0218
      2 C         137.8949  143.2373  162.9710 C.ar    1  UNL1        0.0989
      3 N         138.0397  144.6423  162.4662 N.ar    1  UNL1       -0.2426
      4 C         139.3479  145.3613  162.6139 C.ar    1  UNL1        0.0959
      5 C         140.5113  144.6751  163.2663 C.ar    1  UNL1        0.0128
      6 C         140.3665  143.2700  163.7711 C.ar    1  UNL1        0.0003
      7 C         138.8756  140.0013  163.1596 C.ar    1  UNL1        0.1409
      8 C         138.7308  138.5962  163.6644 C.ar    1  UNL1        0.0665
      9 C         138.6239  138.3359  165.1378 C.ar    1  UNL1        0.1432
     10 F         138.4791  136.9308  165.6426 F       1  UNL1       -0.2041
     11 C         138.6618  139.4806  166.1064 C.ar    1  UNL1        0.0298
     12 C         138.8066  140.8856  165.6016 C.ar    1  UNL1        0.0054
     13 C         138.9135  141.1460  164.1282 C.ar    1  UNL1        0.0356
     14 C         137.7812  140.0883  160.8049 C.3     1  UNL1        0.2525
     15 O         138.9825  140.2616  161.6863 O.3     1  UNL1       -0.4714
     16 C         141.8195  145.3940  163.4140 C.3     1  UNL1        0.0971
     17 N         142.9823  145.0218  162.5426 N.3     1  UNL1       -0.2948
     18 H         143.5736  145.8499  162.4711 H       1  UNL1        0.1235
     19 C         143.8773  143.8829  162.9324 C.3     1  UNL1        0.0542
     20 C         144.6162  142.9797  161.9899 C.3     1  UNL1        0.0157
     21 C         145.3861  141.9859  162.8081 C.3     1  UNL1        0.0014
     22 C         145.1232  142.2749  164.2563 C.3     1  UNL1        0.0014
     23 C         144.1907  143.4473  164.3332 C.3     1  UNL1        0.0157
@<TRIPOS>BOND
     1    14    15    1
     2    15     7    1
     3     7     8   ar
     4     8     9   ar
     5     9    10    1
     6     9    11   ar
     7    11    12   ar
     8    12    13   ar
     9    13     1    1
    10     1     2   ar
    11     2     3   ar
    12     3     4   ar
    13     4     5   ar
    14     5    16    1
    15    16    17    1
    16    17    19    1
    17    19    20    1
    18    20    21    1
    19    21    22    1
    20    22    23    1
    21     5     6   ar
    22    13     7   ar
    23     6     1   ar
    24    23    19    1
    25    17    18    1
@<TRIPOS>MOLECULE
*****
 23 25 0 0 0
SMALL
GASTEIGER

@<TRIPOS>ATOM
      1 C         140.6939  142.8701  165.8884 C.ar    1  UNL1        0.0218
      2 C         142.0976  142.8633  165.3597 C.ar    1  UNL1        0.0989
      3 N         142.4287  143.6093  164.1012 N.ar    1  UNL1       -0.2426
      4 C         141.3560  144.3621  163.3713 C.ar    1  UNL1        0.0959
      5 C         139.9523  144.3689  163.8999 C.ar    1  UNL1        0.0128
      6 C         139.6212  143.6229  165.1585 C.ar    1  UNL1        0.0003
      7 C         139.7847  140.7422  167.0696 C.ar    1  UNL1        0.1409
      8 C         139.4536  139.9963  168.3282 C.ar    1  UNL1        0.0665
      9 C         139.7008  140.6322  169.6640 C.ar    1  UNL1        0.1432
     10 F         139.3698  139.8862  170.9226 F       1  UNL1       -0.2041
     11 C         140.2790  142.0141  169.7413 C.ar    1  UNL1        0.0298
     12 C         140.6100  142.7601  168.4828 C.ar    1  UNL1        0.0054
     13 C         140.3628  142.1241  167.1469 C.ar    1  UNL1        0.0356
     14 C         138.4157  139.1247  165.5665 C.3     1  UNL1        0.2525
     15 O         139.5375  140.1063  165.7338 O.3     1  UNL1       -0.4714
     16 C         138.8796  145.1217  163.1701 C.3     1  UNL1        0.0971
     17 N         137.6867  144.3911  162.6286 N.3     1  UNL1       -0.2948
     18 H         137.3630  144.9170  161.8168 H       1  UNL1        0.1235
     19 C         137.8163  142.9611  162.1948 C.3     1  UNL1        0.0542
     20 C         138.3932  142.4827  160.8954 C.3     1  UNL1        0.0157
     21 C         138.3252  140.9843  160.8816 C.3     1  UNL1        0.0014
     22 C         137.7062  140.5366  162.1726 C.3     1  UNL1        0.0014
     23 C         137.3916  141.7583  162.9841 C.3     1  UNL1        0.0157
@<TRIPOS>BOND
     1    14    15    1
     2    15     7    1
     3     7     8   ar
     4     8     9   ar
     5     9    10    1
     6     9    11   ar
     7    11    12   ar
     8    12    13   ar
     9    13     1    1
    10     1     2   ar
    11     2     3   ar
    12     3     4   ar
    13     4     5   ar
    14     5    16    1
    15    16    17    1
    16    17    19    1
    17    19    20    1
    18    20    21    1
    19    21    22    1
    20    22    23    1
    21     5     6   ar
    22    13     7   ar
    23     6     1   ar
    24    23    19    1
    25    17    18    1
@<TRIPOS>MOLECULE
*****
 23 25 0 0 0
SMALL
GASTEIGER

@<TRIPOS>ATOM
      1 C         139.6869  141.3205  166.1103 C.ar    1  UNL1        0.0218
      2 C         138.7639  140.4915  165.2672 C.ar    1  UNL1        0.0989
      3 N         137.9509  141.1393  164.1859 N.ar    1  UNL1       -0.2426
      4 C         138.0608  142.6162  163.9476 C.ar    1  UNL1        0.0959
      5 C         138.9838  143.4452  164.7907 C.ar    1  UNL1        0.0128
      6 C         139.7969  142.7974  165.8720 C.ar    1  UNL1        0.0003
      7 C         141.8781  140.1628  166.8903 C.ar    1  UNL1        0.1409
      8 C         142.6911  139.5150  167.9717 C.ar    1  UNL1        0.0665
      9 C         142.1260  139.3770  169.3543 C.ar    1  UNL1        0.1432
     10 F         142.9391  138.7291  170.4356 F       1  UNL1       -0.2041
     11 C         140.7479  139.8869  169.6556 C.ar    1  UNL1        0.0298
     12 C         139.9349  140.5347  168.5742 C.ar    1  UNL1        0.0054
     13 C         140.5000  140.6727  167.1916 C.ar    1  UNL1        0.0356
     14 C         143.4596  141.3645  165.2157 C.3     1  UNL1        0.2525
     15 O         142.4432  140.3008  165.5077 O.3     1  UNL1       -0.4714
     16 C         139.0938  144.9221  164.5524 C.3     1  UNL1        0.0971
     17 N         139.8440  145.4355  163.3593 N.3     1  UNL1       -0.2948
     18 H         139.8794  146.4509  163.4483 H       1  UNL1        0.1235
     19 C         141.2478  144.9743  163.1006 C.3     1  UNL1        0.0542
     20 C         142.4609  145.3517  163.8981 C.3     1  UNL1        0.0157
     21 C         143.6477  144.6654  163.2894 C.3     1  UNL1        0.0014
     22 C         143.1680  143.8638  162.1157 C.3     1  UNL1        0.0014
     23 C         141.6848  144.0547  161.9990 C.3     1  UNL1        0.0157
@<TRIPOS>BOND
     1    14    15    1
     2    15     7    1
     3     7     8   ar
     4     8     9   ar
     5     9    10    1
     6     9    11   ar
     7    11    12   ar
     8    12    13   ar
     9    13     1    1
    10     1     2   ar
    11     2     3   ar
    12     3     4   ar
    13     4     5   ar
    14     5    16    1
    15    16    17    1
    16    17    19    1
    17    19    20    1
    18    20    21    1
    19    21    22    1
    20    22    23    1
    21     5     6   ar
    22    13     7   ar
    23     6     1   ar
    24    23    19    1
    25    17    18    1
@<TRIPOS>MOLECULE
*****
 23 25 0 0 0
SMALL
GASTEIGER

@<TRIPOS>ATOM
      1 C         139.2109  142.5659  163.6307 C.ar    1  UNL1        0.0218
      2 C         138.0598  143.2451  162.9497 C.ar    1  UNL1        0.0989
      3 N         138.2043  144.6557  162.4604 N.ar    1  UNL1       -0.2426
      4 C         139.4998  145.3871  162.6522 C.ar    1  UNL1        0.0959
      5 C         140.6509  144.7078  163.3332 C.ar    1  UNL1        0.0128
      6 C         140.5064  143.2972  163.8224 C.ar    1  UNL1        0.0003
      7 C         139.2509  140.8436  165.5755 C.ar    1  UNL1        0.1409
      8 C         139.1064  139.4331  166.0647 C.ar    1  UNL1        0.0665
      9 C         138.7773  138.3341  165.0983 C.ar    1  UNL1        0.1432
     10 F         138.6328  136.9234  165.5875 F       1  UNL1       -0.2041
     11 C         138.5928  138.6457  163.6427 C.ar    1  UNL1        0.0298
     12 C         138.7373  140.0563  163.1535 C.ar    1  UNL1        0.0054
     13 C         139.0664  141.1552  164.1199 C.ar    1  UNL1        0.0356
     14 C         140.8559  141.8922  167.3289 C.3     1  UNL1        0.2525
     15 O         139.5800  141.9426  166.5419 O.3     1  UNL1       -0.4714
     16 C         141.9464  145.4392  163.5249 C.3     1  UNL1        0.0971
     17 N         143.1323  145.1003  162.6714 N.3     1  UNL1       -0.2948
     18 H         143.7575  145.9057  162.7028 H       1  UNL1        0.1235
     19 C         143.9646  143.8934  162.9888 C.3     1  UNL1        0.0542
     20 C         144.5964  142.9704  161.9893 C.3     1  UNL1        0.0157
     21 C         145.3335  141.9042  162.7442 C.3     1  UNL1        0.0014
     22 C         145.1572  142.1682  164.2103 C.3     1  UNL1        0.0014
     23 C         144.3112  143.3976  164.3614 C.3     1  UNL1        0.0157
@<TRIPOS>BOND
     1    14    15    1
     2    15     7    1
     3     7     8   ar
     4     8     9   ar
     5     9    10    1
     6     9    11   ar
     7    11    12   ar
     8    12    13   ar
     9    13     1    1
    10     1     2   ar
    11     2     3   ar
    12     3     4   ar
    13     4     5   ar
    14     5    16    1
    15    16    17    1
    16    17    19    1
    17    19    20    1
    18    20    21    1
    19    21    22    1
    20    22    23    1
    21     5     6   ar
    22    13     7   ar
    23     6     1   ar
    24    23    19    1
    25    17    18    1
@<TRIPOS>MOLECULE
*****
 23 25 0 0 0
SMALL
GASTEIGER

@<TRIPOS>ATOM
      1 C         142.8406  139.6979  165.4138 C.ar    1  UNL1        0.0218
      2 C         142.5342  138.5708  164.4726 C.ar    1  UNL1        0.0989
      3 N         143.2465  138.4786  163.1557 N.ar    1  UNL1       -0.2426
      4 C         144.2652  139.5136  162.7800 C.ar    1  UNL1        0.0959
      5 C         144.5716  140.6407  163.7212 C.ar    1  UNL1        0.0128
      6 C         143.8593  140.7328  165.0381 C.ar    1  UNL1        0.0003
      7 C         140.7462  140.3690  166.7969 C.ar    1  UNL1        0.1409
      8 C         140.0339  140.4611  168.1137 C.ar    1  UNL1        0.0665
      9 C         140.7038  139.9741  169.3644 C.ar    1  UNL1        0.1432
     10 F         139.9914  140.0662  170.6813 F       1  UNL1       -0.2041
     11 C         142.0859  139.3951  169.2982 C.ar    1  UNL1        0.0298
     12 C         142.7981  139.3030  167.9813 C.ar    1  UNL1        0.0054
     13 C         142.1283  139.7900  166.7307 C.ar    1  UNL1        0.0356
     14 C         140.1544  142.3058  165.1694 C.3     1  UNL1        0.2525
     15 O         140.0763  140.8560  165.5462 O.3     1  UNL1       -0.4714
     16 C         145.5903  141.6756  163.3455 C.3     1  UNL1        0.0971
     17 N         145.2201  142.7867  162.4084 N.3     1  UNL1       -0.2948
     18 H         145.0591  142.3608  161.4957 H       1  UNL1        0.1235
     19 C         144.0275  143.6484  162.7006 C.3     1  UNL1        0.0542
     20 C         142.8029  143.7788  161.8443 C.3     1  UNL1        0.0157
     21 C         141.8687  144.7419  162.5148 C.3     1  UNL1        0.0014
     22 C         142.5161  145.2068  163.7856 C.3     1  UNL1        0.0014
     23 C         143.8503  144.5310  163.9004 C.3     1  UNL1        0.0157
@<TRIPOS>BOND
     1    14    15    1
     2    15     7    1
     3     7     8   ar
     4     8     9   ar
     5     9    10    1
     6     9    11   ar
     7    11    12   ar
     8    12    13   ar
     9    13     1    1
    10     1     2   ar
    11     2     3   ar
    12     3     4   ar
    13     4     5   ar
    14     5    16    1
    15    16    17    1
    16    17    19    1
    17    19    20    1
    18    20    21    1
    19    21    22    1
    20    22    23    1
    21     5     6   ar
    22    13     7   ar
    23     6     1   ar
    24    23    19    1
    25    17    18    1
@<TRIPOS>MOLECULE
*****
 23 25 0 0 0
SMALL
GASTEIGER

@<TRIPOS>ATOM
      1 C         140.5732  143.3831  165.4258 C.ar    1  UNL1        0.0218
      2 C         139.4232  144.0332  164.7154 C.ar    1  UNL1        0.0989
      3 N         139.6791  144.9457  163.5527 N.ar    1  UNL1       -0.2426
      4 C         141.0850  145.2081  163.1005 C.ar    1  UNL1        0.0959
      5 C         142.2351  144.5579  163.8109 C.ar    1  UNL1        0.0128
      6 C         141.9791  143.6454  164.9736 C.ar    1  UNL1        0.0003
      7 C         139.8386  141.0690  166.3508 C.ar    1  UNL1        0.1409
      8 C         139.5827  140.1565  167.5135 C.ar    1  UNL1        0.0665
      9 C         139.8053  140.6456  168.9139 C.ar    1  UNL1        0.1432
     10 F         139.5494  139.7331  170.0766 F       1  UNL1       -0.2041
     11 C         140.2839  142.0472  169.1517 C.ar    1  UNL1        0.0298
     12 C         140.5399  142.9596  167.9890 C.ar    1  UNL1        0.0054
     13 C         140.3172  142.4705  166.5886 C.ar    1  UNL1        0.0356
     14 C         138.2206  140.4356  164.4193 C.3     1  UNL1        0.2525
     15 O         139.6160  140.5799  164.9504 O.3     1  UNL1       -0.4714
     16 C         143.6410  144.8203  163.3587 C.3     1  UNL1        0.0971
     17 N         144.3110  143.8752  162.4059 N.3     1  UNL1       -0.2948
     18 H         145.2223  144.2766  162.1851 H       1  UNL1        0.1235
     19 C         144.5512  142.4501  162.8076 C.3     1  UNL1        0.0542
     20 C         144.0207  141.2349  162.1062 C.3     1  UNL1        0.0157
     21 C         144.5057  140.0237  162.8463 C.3     1  UNL1        0.0014
     22 C         145.3360  140.4904  164.0052 C.3     1  UNL1        0.0014
     23 C         145.3641  141.9899  163.9812 C.3     1  UNL1        0.0157
@<TRIPOS>BOND
     1    14    15    1
     2    15     7    1
     3     7     8   ar
     4     8     9   ar
     5     9    10    1
     6     9    11   ar
     7    11    12   ar
     8    12    13   ar
     9    13     1    1
    10     1     2   ar
    11     2     3   ar
    12     3     4   ar
    13     4     5   ar
    14     5    16    1
    15    16    17    1
    16    17    19    1
    17    19    20    1
    18    20    21    1
    19    21    22    1
    20    22    23    1
    21     5     6   ar
    22    13     7   ar
    23     6     1   ar
    24    23    19    1
    25    17    18    1
@<TRIPOS>MOLECULE
*****
 23 25 0 0 0
SMALL
GASTEIGER

@<TRIPOS>ATOM
      1 C         139.4407  139.9674  165.7197 C.ar    1  UNL1        0.0218
      2 C         138.3274  140.4431  164.8342 C.ar    1  UNL1        0.0989
      3 N         138.0977  139.7917  163.5027 N.ar    1  UNL1       -0.2426
      4 C         138.9813  138.6645  163.0567 C.ar    1  UNL1        0.0959
      5 C         140.0946  138.1889  163.9423 C.ar    1  UNL1        0.0128
      6 C         140.3243  138.8403  165.2738 C.ar    1  UNL1        0.0003
      7 C         140.3728  141.9420  167.1277 C.ar    1  UNL1        0.1409
      8 C         140.6025  142.5934  168.4592 C.ar    1  UNL1        0.0665
      9 C         140.1297  141.9216  169.7142 C.ar    1  UNL1        0.1432
     10 F         140.3594  142.5731  171.0458 F       1  UNL1       -0.2041
     11 C         139.4273  140.5985  169.6379 C.ar    1  UNL1        0.0298
     12 C         139.1976  139.9471  168.3064 C.ar    1  UNL1        0.0054
     13 C         139.6704  140.6189  167.0513 C.ar    1  UNL1        0.0356
     14 C         142.2509  142.4026  165.3925 C.3     1  UNL1        0.2525
     15 O         140.8456  142.6137  165.8726 O.3     1  UNL1       -0.4714
     16 C         140.9782  137.0618  163.4964 C.3     1  UNL1        0.0971
     17 N         141.9256  137.2598  162.3504 N.3     1  UNL1       -0.2948
     18 H         141.3551  137.3630  161.5112 H       1  UNL1        0.1235
     19 C         142.8886  138.4099  162.3635 C.3     1  UNL1        0.0542
     20 C         143.6887  138.8765  163.5434 C.3     1  UNL1        0.0157
     21 C         144.5151  140.0503  163.1082 C.3     1  UNL1        0.0014
     22 C         144.2256  140.3091  161.6593 C.3     1  UNL1        0.0014
     23 C         143.2204  139.2953  161.1991 C.3     1  UNL1        0.0157
@<TRIPOS>BOND
     1    14    15    1
     2    15     7    1
     3     7     8   ar
     4     8     9   ar
     5     9    10    1
     6     9    11   ar
     7    11    12   ar
     8    12    13   ar
     9    13     1    1
    10     1     2   ar
    11     2     3   ar
    12     3     4   ar
    13     4     5   ar
    14     5    16    1
    15    16    17    1
    16    17    19    1
    17    19    20    1
    18    20    21    1
    19    21    22    1
    20    22    23    1
    21     5     6   ar
    22    13     7   ar
    23     6     1   ar
    24    23    19    1
    25    17    18    1
@<TRIPOS>MOLECULE
*****
 23 25 0 0 0
SMALL
GASTEIGER

@<TRIPOS>ATOM
      1 C         140.3534  142.4265  165.9289 C.ar    1  UNL1        0.0218
      2 C         141.5493  142.9456  165.1872 C.ar    1  UNL1        0.0989
      3 N         141.4268  143.3313  163.7428 N.ar    1  UNL1       -0.2426
      4 C         140.1083  143.1977  163.0401 C.ar    1  UNL1        0.0959
      5 C         138.9123  142.6785  163.7818 C.ar    1  UNL1        0.0128
      6 C         139.0349  142.2929  165.2263 C.ar    1  UNL1        0.0003
      7 C         140.7437  140.6134  167.7484 C.ar    1  UNL1        0.1409
      8 C         140.8663  140.2278  169.1927 C.ar    1  UNL1        0.0665
      9 C         140.7211  141.2697  170.2621 C.ar    1  UNL1        0.1432
     10 F         140.8437  140.8840  171.7065 F       1  UNL1       -0.2041
     11 C         140.4534  142.6971  169.8870 C.ar    1  UNL1        0.0298
     12 C         140.3308  143.0827  168.4427 C.ar    1  UNL1        0.0054
     13 C         140.4760  142.0408  167.3733 C.ar    1  UNL1        0.0356
     14 C         142.2503  139.0646  166.3057 C.3     1  UNL1        0.2525
     15 O         140.8889  139.5715  166.6790 O.3     1  UNL1       -0.4714
     16 C         137.5939  142.5450  163.0792 C.3     1  UNL1        0.0971
     17 N         136.9318  141.2030  162.9757 N.3     1  UNL1       -0.2948
     18 H         136.1725  141.3005  162.3016 H       1  UNL1        0.1235
     19 C         137.7297  140.0032  162.5587 C.3     1  UNL1        0.0542
     20 C         137.9136  139.5116  161.1535 C.3     1  UNL1        0.0157
     21 C         138.7813  138.2889  161.2000 C.3     1  UNL1        0.0014
     22 C         139.1337  138.0249  162.6340 C.3     1  UNL1        0.0014
     23 C         138.4837  139.0844  163.4736 C.3     1  UNL1        0.0157
@<TRIPOS>BOND
     1    14    15    1
     2    15     7    1
     3     7     8   ar
     4     8     9   ar
     5     9    10    1
     6     9    11   ar
     7    11    12   ar
     8    12    13   ar
     9    13     1    1
    10     1     2   ar
    11     2     3   ar
    12     3     4   ar
    13     4     5   ar
    14     5    16    1
    15    16    17    1
    16    17    19    1
    17    19    20    1
    18    20    21    1
    19    21    22    1
    20    22    23    1
    21     5     6   ar
    22    13     7   ar
    23     6     1   ar
    24    23    19    1
    25    17    18    1
@<TRIPOS>MOLECULE
*****
 23 25 0 0 0
SMALL
GASTEIGER

@<TRIPOS>ATOM
      1 C         139.4721  139.7178  165.8529 C.ar    1  UNL1        0.0218
      2 C         139.9681  138.4408  165.2420 C.ar    1  UNL1        0.0989
      3 N         139.5290  138.0494  163.8622 N.ar    1  UNL1       -0.2426
      4 C         138.5937  138.9349  163.0933 C.ar    1  UNL1        0.0959
      5 C         138.0976  140.2119  163.7043 C.ar    1  UNL1        0.0128
      6 C         138.5369  140.6033  165.0841 C.ar    1  UNL1        0.0003
      7 C         141.2751  140.6956  167.4477 C.ar    1  UNL1        0.1409
      8 C         141.7143  141.0870  168.8275 C.ar    1  UNL1        0.0665
      9 C         140.7896  140.8920  169.9924 C.ar    1  UNL1        0.1432
     10 F         141.2289  141.2834  171.3723 F       1  UNL1       -0.2041
     11 C         139.4259  140.3056  169.7775 C.ar    1  UNL1        0.0298
     12 C         138.9867  139.9142  168.3977 C.ar    1  UNL1        0.0054
     13 C         139.9113  140.1092  167.2328 C.ar    1  UNL1        0.0356
     14 C         143.0856  142.0995  166.2226 C.3     1  UNL1        0.2525
     15 O         142.1997  140.8906  166.2828 O.3     1  UNL1       -0.4714
     16 C         137.1624  141.0974  162.9354 C.3     1  UNL1        0.0971
     17 N         137.6345  142.4291  162.4319 N.3     1  UNL1       -0.2948
     18 H         136.8114  142.9211  162.0842 H       1  UNL1        0.1235
     19 C         138.3439  143.3725  163.3577 C.3     1  UNL1        0.0542
     20 C         139.7795  143.7951  163.2555 C.3     1  UNL1        0.0157
     21 C         140.0651  144.7426  164.3827 C.3     1  UNL1        0.0014
     22 C         138.8060  144.9055  165.1816 C.3     1  UNL1        0.0014
     23 C         137.7422  144.0587  164.5481 C.3     1  UNL1        0.0157
@<TRIPOS>BOND
     1    14    15    1
     2    15     7    1
     3     7     8   ar
     4     8     9   ar
     5     9    10    1
     6     9    11   ar
     7    11    12   ar
     8    12    13   ar
     9    13     1    1
    10     1     2   ar
    11     2     3   ar
    12     3     4   ar
    13     4     5   ar
    14     5    16    1
    15    16    17    1
    16    17    19    1
    17    19    20    1
    18    20    21    1
    19    21    22    1
    20    22    23    1
    21     5     6   ar
    22    13     7   ar
    23     6     1   ar
    24    23    19    1
    25    17    18    1
