@<TRIPOS>MOLECULE
*****
 27 29 0 0 0
SMALL
GASTEIGER

@<TRIPOS>ATOM
      1 C         138.7839  137.6341  164.3081 C.3     1  UNL1        0.0518
      2 C         139.1635  138.9335  164.9544 C.ar    1  UNL1        0.0568
      3 N         139.5366  138.9678  166.4068 N.ar    1  UNL1       -0.2456
      4 C         139.9162  140.2671  167.0532 C.ar    1  UNL1        0.1319
      5 C         139.9227  141.5321  166.2471 C.ar    1  UNL1        0.0196
      6 C         139.5496  141.4978  164.7946 C.ar    1  UNL1       -0.0015
      7 C         139.1700  140.1984  164.1483 C.ar    1  UNL1        0.0068
      8 C         140.3380  142.6553  167.1503 C.3     1  UNL1        0.1225
      9 N         140.5881  142.0845  168.5147 N.am    1  UNL1       -0.2654
     10 C         140.3275  140.6085  168.4547 C.2     1  UNL1        0.2670
     11 O         140.4556  139.6434  169.5958 O.2     1  UNL1       -0.2682
     12 C         139.5560  142.7627  163.9884 C.ar    1  UNL1        0.0102
     13 C         138.2851  143.5357  163.7957 C.ar    1  UNL1        0.0017
     14 C         138.2914  144.8006  162.9895 C.ar    1  UNL1        0.0114
     15 C         139.5688  145.2925  162.3761 C.ar    1  UNL1        0.0585
     16 CL        139.5752  146.5574  161.5699 Cl      1  UNL1       -0.0822
     17 C         140.8398  144.5195  162.5688 C.ar    1  UNL1        0.0228
     18 C         140.8334  143.2546  163.3750 C.ar    1  UNL1        0.0585
     19 CL        142.1044  142.4816  163.5677 Cl      1  UNL1       -0.0822
     20 C         138.7969  140.1640  162.6958 C.3     1  UNL1        0.0934
     21 N         137.3639  140.3319  162.2854 N.3     1  UNL1       -0.3174
     22 H         136.8190  139.5374  162.6204 H       1  UNL1        0.1192
     23 H         137.3050  140.3799  161.2682 H       1  UNL1        0.1192
     24 C         141.0227  142.8544  169.7265 C.3     1  UNL1        0.1358
     25 C         140.2593  142.7247  171.0111 C.2     1  UNL1        0.0705
     26 O         139.0004  143.5134  171.2184 O.co2   1  UNL1       -0.5474
     27 O         140.7548  141.8062  172.0886 O.co2   1  UNL1       -0.5474
@<TRIPOS>UNITY_ATOM_ATTR
26 1
charge -1
@<TRIPOS>BOND
     1     1     2    1
     2     2     3   ar
     3     3     4   ar
     4     4     5   ar
     5     5     6   ar
     6     6    12    1
     7    12    13   ar
     8    13    14   ar
     9    14    15   ar
    10    15    16    1
    11    15    17   ar
    12    17    18   ar
    13    18    19    1
    14     6     7   ar
    15     7    20    1
    16    20    21    1
    17     5     8    1
    18     8     9    1
    19     9    24    1
    20    24    25    1
    21    25    26   ar
    22    25    27   ar
    23     9    10   am
    24    10    11    2
    25     7     2   ar
    26    10     4    1
    27    18    12   ar
    28    21    22    1
    29    21    23    1
@<TRIPOS>MOLECULE
*****
 27 29 0 0 0
SMALL
GASTEIGER

@<TRIPOS>ATOM
      1 C         139.3922  140.9197  170.3480 C.3     1  UNL1        0.0518
      2 C         139.5773  140.6891  168.8774 C.ar    1  UNL1        0.0568
      3 N         138.9408  139.5012  168.2187 N.ar    1  UNL1       -0.2456
      4 C         139.1259  139.2705  166.7481 C.ar    1  UNL1        0.1319
      5 C         139.9474  140.2276  165.9363 C.ar    1  UNL1        0.0196
      6 C         140.5839  141.4154  166.5950 C.ar    1  UNL1       -0.0015
      7 C         140.3988  141.6461  168.0656 C.ar    1  UNL1        0.0068
      8 C         139.9534  139.7445  164.5163 C.3     1  UNL1        0.1225
      9 N         139.1356  138.4888  164.4504 N.am    1  UNL1       -0.2654
     10 C         138.6242  138.1958  165.8298 C.2     1  UNL1        0.2670
     11 O         137.7623  137.0324  166.2219 O.2     1  UNL1       -0.2682
     12 C         141.4054  142.3726  165.7832 C.ar    1  UNL1        0.0102
     13 C         142.8937  142.2031  165.7038 C.ar    1  UNL1        0.0017
     14 C         143.7153  143.1603  164.8921 C.ar    1  UNL1        0.0114
     15 C         143.0485  144.2868  164.1598 C.ar    1  UNL1        0.0585
     16 CL        143.8701  145.2440  163.3481 Cl      1  UNL1       -0.0822
     17 C         141.5603  144.4563  164.2393 C.ar    1  UNL1        0.0228
     18 C         140.7387  143.4992  165.0510 C.ar    1  UNL1        0.0585
     19 CL        139.2504  143.6687  165.1304 Cl      1  UNL1       -0.0822
     20 C         141.0353  142.8340  168.7244 C.3     1  UNL1        0.0934
     21 N         142.3891  142.7049  169.3571 N.3     1  UNL1       -0.3174
     22 H         142.3315  142.0760  170.1581 H       1  UNL1        0.1192
     23 H         142.7083  143.6225  169.6675 H       1  UNL1        0.1192
     24 C         138.8750  137.6697  163.2211 C.3     1  UNL1        0.1358
     25 C         139.6714  137.9148  161.9739 C.2     1  UNL1        0.0705
     26 O         141.0669  137.3772  161.8573 O.co2   1  UNL1       -0.5474
     27 O         139.0724  138.6975  160.8431 O.co2   1  UNL1       -0.5474
@<TRIPOS>UNITY_ATOM_ATTR
26 1
charge -1
@<TRIPOS>BOND
     1     1     2    1
     2     2     3   ar
     3     3     4   ar
     4     4     5   ar
     5     5     6   ar
     6     6    12    1
     7    12    13   ar
     8    13    14   ar
     9    14    15   ar
    10    15    16    1
    11    15    17   ar
    12    17    18   ar
    13    18    19    1
    14     6     7   ar
    15     7    20    1
    16    20    21    1
    17     5     8    1
    18     8     9    1
    19     9    24    1
    20    24    25    1
    21    25    26   ar
    22    25    27   ar
    23     9    10   am
    24    10    11    2
    25     7     2   ar
    26    10     4    1
    27    18    12   ar
    28    21    22    1
    29    21    23    1
@<TRIPOS>MOLECULE
*****
 27 29 0 0 0
SMALL
GASTEIGER

@<TRIPOS>ATOM
      1 C         138.8603  137.5997  164.2219 C.3     1  UNL1        0.0518
      2 C         139.2879  138.8886  164.8592 C.ar    1  UNL1        0.0568
      3 N         139.7143  138.9090  166.2972 N.ar    1  UNL1       -0.2456
      4 C         140.1418  140.1977  166.9345 C.ar    1  UNL1        0.1319
      5 C         140.1431  141.4662  166.1338 C.ar    1  UNL1        0.0196
      6 C         139.7168  141.4458  164.6958 C.ar    1  UNL1       -0.0015
      7 C         139.2892  140.1569  164.0585 C.ar    1  UNL1        0.0068
      8 C         140.6124  142.5770  167.0258 C.3     1  UNL1        0.1225
      9 N         140.9011  141.9951  168.3779 N.am    1  UNL1       -0.2654
     10 C         140.6103  140.5247  168.3214 C.2     1  UNL1        0.2670
     11 O         140.7615  139.5520  169.4532 O.2     1  UNL1       -0.2682
     12 C         139.7181  142.7142  163.8950 C.ar    1  UNL1        0.0102
     13 C         140.9615  143.1456  163.1754 C.ar    1  UNL1        0.0017
     14 C         140.9628  144.4139  162.3746 C.ar    1  UNL1        0.0114
     15 C         139.7207  145.2509  162.2935 C.ar    1  UNL1        0.0585
     16 CL        139.7220  146.5192  161.4927 Cl      1  UNL1       -0.0822
     17 C         138.4773  144.8195  163.0131 C.ar    1  UNL1        0.0228
     18 C         138.4759  143.5512  163.8139 C.ar    1  UNL1        0.0585
     19 CL        137.2325  143.1198  164.5335 Cl      1  UNL1       -0.0822
     20 C         138.8629  140.1365  162.6204 C.3     1  UNL1        0.0934
     21 N         137.4205  140.3408  162.2628 N.3     1  UNL1       -0.3174
     22 H         136.8687  139.5588  162.6155 H       1  UNL1        0.1192
     23 H         137.3259  140.3936  161.2486 H       1  UNL1        0.1192
     24 C         141.3941  142.7510  169.5761 C.3     1  UNL1        0.1358
     25 C         140.4678  143.0244  170.7237 C.2     1  UNL1        0.0705
     26 O         139.5536  144.2129  170.6828 O.co2   1  UNL1       -0.5474
     27 O         140.4555  142.1093  171.9122 O.co2   1  UNL1       -0.5474
@<TRIPOS>UNITY_ATOM_ATTR
26 1
charge -1
@<TRIPOS>BOND
     1     1     2    1
     2     2     3   ar
     3     3     4   ar
     4     4     5   ar
     5     5     6   ar
     6     6    12    1
     7    12    13   ar
     8    13    14   ar
     9    14    15   ar
    10    15    16    1
    11    15    17   ar
    12    17    18   ar
    13    18    19    1
    14     6     7   ar
    15     7    20    1
    16    20    21    1
    17     5     8    1
    18     8     9    1
    19     9    24    1
    20    24    25    1
    21    25    26   ar
    22    25    27   ar
    23     9    10   am
    24    10    11    2
    25     7     2   ar
    26    10     4    1
    27    18    12   ar
    28    21    22    1
    29    21    23    1
@<TRIPOS>MOLECULE
*****
 27 29 0 0 0
SMALL
GASTEIGER

@<TRIPOS>ATOM
      1 C         144.9055  139.1607  164.3950 C.3     1  UNL1        0.0518
      2 C         143.8103  139.9769  165.0151 C.ar    1  UNL1        0.0568
      3 N         143.3320  139.6603  166.4011 N.ar    1  UNL1       -0.2456
      4 C         142.2369  140.4764  167.0213 C.ar    1  UNL1        0.1319
      5 C         141.6201  141.6092  166.2555 C.ar    1  UNL1        0.0196
      6 C         142.0984  141.9258  164.8695 C.ar    1  UNL1       -0.0015
      7 C         143.1935  141.1095  164.2494 C.ar    1  UNL1        0.0068
      8 C         140.5655  142.2335  167.1204 C.3     1  UNL1        0.1225
      9 N         140.5305  141.4866  168.4207 N.am    1  UNL1       -0.2654
     10 C         141.5635  140.4007  168.3595 C.2     1  UNL1        0.2670
     11 O         141.8694  139.4126  169.4458 O.2     1  UNL1       -0.2682
     12 C         141.4816  143.0585  164.1036 C.ar    1  UNL1        0.0102
     13 C         142.1016  144.4234  164.1543 C.ar    1  UNL1        0.0017
     14 C         141.4849  145.5562  163.3884 C.ar    1  UNL1        0.0114
     15 C         140.2482  145.3239  162.5719 C.ar    1  UNL1        0.0585
     16 CL        139.6315  146.4567  161.8061 Cl      1  UNL1       -0.0822
     17 C         139.6282  143.9590  162.5212 C.ar    1  UNL1        0.0228
     18 C         140.2449  142.8262  163.2871 C.ar    1  UNL1        0.0585
     19 CL        139.6250  141.4613  163.2364 Cl      1  UNL1       -0.0822
     20 C         143.6719  141.4262  162.8633 C.3     1  UNL1        0.0934
     21 N         144.8130  142.3789  162.6630 N.3     1  UNL1       -0.3174
     22 H         144.5334  143.3124  162.9645 H       1  UNL1        0.1192
     23 H         145.0670  142.4024  161.6754 H       1  UNL1        0.1192
     24 C         139.6221  141.7750  169.5790 C.3     1  UNL1        0.1358
     25 C         140.0338  142.7670  170.6261 C.2     1  UNL1        0.0705
     26 O         140.4566  142.2917  171.9845 O.co2   1  UNL1       -0.5474
     27 O         140.0225  144.2344  170.3150 O.co2   1  UNL1       -0.5474
@<TRIPOS>UNITY_ATOM_ATTR
26 1
charge -1
@<TRIPOS>BOND
     1     1     2    1
     2     2     3   ar
     3     3     4   ar
     4     4     5   ar
     5     5     6   ar
     6     6    12    1
     7    12    13   ar
     8    13    14   ar
     9    14    15   ar
    10    15    16    1
    11    15    17   ar
    12    17    18   ar
    13    18    19    1
    14     6     7   ar
    15     7    20    1
    16    20    21    1
    17     5     8    1
    18     8     9    1
    19     9    24    1
    20    24    25    1
    21    25    26   ar
    22    25    27   ar
    23     9    10   am
    24    10    11    2
    25     7     2   ar
    26    10     4    1
    27    18    12   ar
    28    21    22    1
    29    21    23    1
@<TRIPOS>MOLECULE
*****
 27 29 0 0 0
SMALL
GASTEIGER

@<TRIPOS>ATOM
      1 C         137.2413  138.0463  167.3773 C.3     1  UNL1        0.0518
      2 C         138.1062  139.1635  166.8733 C.ar    1  UNL1        0.0568
      3 N         138.0446  139.5669  165.4299 N.ar    1  UNL1       -0.2456
      4 C         138.9094  140.6841  164.9259 C.ar    1  UNL1        0.1319
      5 C         139.8357  141.3979  165.8653 C.ar    1  UNL1        0.0196
      6 C         139.8973  140.9944  167.3087 C.ar    1  UNL1       -0.0015
      7 C         139.0324  139.8772  167.8127 C.ar    1  UNL1        0.0068
      8 C         140.5631  142.4534  165.0863 C.3     1  UNL1        0.1225
      9 N         140.0862  142.3920  163.6655 N.am    1  UNL1       -0.2654
     10 C         139.0642  141.2985  163.5663 C.2     1  UNL1        0.2670
     11 O         138.3265  140.8911  162.3254 O.2     1  UNL1       -0.2682
     12 C         140.8236  141.7081  168.2482 C.ar    1  UNL1        0.0102
     13 C         140.3430  142.9096  169.0068 C.ar    1  UNL1        0.0017
     14 C         141.2692  143.6233  169.9463 C.ar    1  UNL1        0.0114
     15 C         142.6761  143.1356  170.1271 C.ar    1  UNL1        0.0585
     16 CL        143.6023  143.8493  171.0666 Cl      1  UNL1       -0.0822
     17 C         143.1568  141.9342  169.3685 C.ar    1  UNL1        0.0228
     18 C         142.2305  141.2204  168.4290 C.ar    1  UNL1        0.0585
     19 CL        142.7112  140.0190  167.6703 Cl      1  UNL1       -0.0822
     20 C         139.0940  139.4737  169.2562 C.3     1  UNL1        0.0934
     21 N         138.1703  140.1092  170.2526 N.3     1  UNL1       -0.3174
     22 H         138.3965  141.0997  170.3424 H       1  UNL1        0.1192
     23 H         138.2799  139.6520  171.1577 H       1  UNL1        0.1192
     24 C         140.5500  143.2700  162.5411 C.3     1  UNL1        0.1358
     25 C         140.2200  144.7332  162.5470 C.2     1  UNL1        0.0705
     26 O         138.8596  145.1970  162.1179 O.co2   1  UNL1       -0.5474
     27 O         141.2505  145.7327  162.9820 O.co2   1  UNL1       -0.5474
@<TRIPOS>UNITY_ATOM_ATTR
26 1
charge -1
@<TRIPOS>BOND
     1     1     2    1
     2     2     3   ar
     3     3     4   ar
     4     4     5   ar
     5     5     6   ar
     6     6    12    1
     7    12    13   ar
     8    13    14   ar
     9    14    15   ar
    10    15    16    1
    11    15    17   ar
    12    17    18   ar
    13    18    19    1
    14     6     7   ar
    15     7    20    1
    16    20    21    1
    17     5     8    1
    18     8     9    1
    19     9    24    1
    20    24    25    1
    21    25    26   ar
    22    25    27   ar
    23     9    10   am
    24    10    11    2
    25     7     2   ar
    26    10     4    1
    27    18    12   ar
    28    21    22    1
    29    21    23    1
@<TRIPOS>MOLECULE
*****
 27 29 0 0 0
SMALL
GASTEIGER

@<TRIPOS>ATOM
      1 C         144.1663  144.1765  164.2295 C.3     1  UNL1        0.0518
      2 C         143.3626  143.1257  164.9367 C.ar    1  UNL1        0.0568
      3 N         143.5541  142.8980  166.4068 N.ar    1  UNL1       -0.2456
      4 C         142.7504  141.8473  167.1140 C.ar    1  UNL1        0.1319
      5 C         141.7552  141.0242  166.3509 C.ar    1  UNL1        0.0196
      6 C         141.5637  141.2519  164.8808 C.ar    1  UNL1       -0.0015
      7 C         142.3675  142.3027  164.1736 C.ar    1  UNL1        0.0068
      8 C         141.1115  140.0679  167.3107 C.3     1  UNL1        0.1225
      9 N         141.7089  140.2999  168.6669 N.am    1  UNL1       -0.2654
     10 C         142.7218  141.3997  168.5453 C.2     1  UNL1        0.2670
     11 O         143.5590  141.9543  169.6595 O.2     1  UNL1       -0.2682
     12 C         140.5686  140.4289  164.1176 C.ar    1  UNL1        0.0102
     13 C         140.9890  139.1302  163.4958 C.ar    1  UNL1        0.0017
     14 C         139.9940  138.3071  162.7327 C.ar    1  UNL1        0.0114
     15 C         138.5785  138.7828  162.5914 C.ar    1  UNL1        0.0585
     16 CL        137.5834  137.9597  161.8282 Cl      1  UNL1       -0.0822
     17 C         138.1580  140.0815  163.2132 C.ar    1  UNL1        0.0228
     18 C         139.1531  140.9046  163.9763 C.ar    1  UNL1        0.0585
     19 CL        138.7326  142.2032  164.5981 Cl      1  UNL1       -0.0822
     20 C         142.1760  142.5304  162.7034 C.3     1  UNL1        0.0934
     21 N         141.1312  143.4938  162.2234 N.3     1  UNL1       -0.3174
     22 H         140.2055  143.1387  162.4632 H       1  UNL1        0.1192
     23 H         141.2038  143.5978  161.2114 H       1  UNL1        0.1192
     24 C         141.3555  139.5618  169.9240 C.3     1  UNL1        0.1358
     25 C         140.3195  140.1190  170.8547 C.2     1  UNL1        0.0705
     26 O         140.7116  141.1203  171.9004 O.co2   1  UNL1       -0.5474
     27 O         138.8913  139.6747  170.7399 O.co2   1  UNL1       -0.5474
@<TRIPOS>UNITY_ATOM_ATTR
26 1
charge -1
@<TRIPOS>BOND
     1     1     2    1
     2     2     3   ar
     3     3     4   ar
     4     4     5   ar
     5     5     6   ar
     6     6    12    1
     7    12    13   ar
     8    13    14   ar
     9    14    15   ar
    10    15    16    1
    11    15    17   ar
    12    17    18   ar
    13    18    19    1
    14     6     7   ar
    15     7    20    1
    16    20    21    1
    17     5     8    1
    18     8     9    1
    19     9    24    1
    20    24    25    1
    21    25    26   ar
    22    25    27   ar
    23     9    10   am
    24    10    11    2
    25     7     2   ar
    26    10     4    1
    27    18    12   ar
    28    21    22    1
    29    21    23    1
@<TRIPOS>MOLECULE
*****
 27 29 0 0 0
SMALL
GASTEIGER

@<TRIPOS>ATOM
      1 C         142.7652  141.4145  170.2948 C.3     1  UNL1        0.0518
      2 C         142.7543  141.5501  168.8009 C.ar    1  UNL1        0.0568
      3 N         143.6341  142.5653  168.1337 N.ar    1  UNL1       -0.2456
      4 C         143.6233  142.7010  166.6399 C.ar    1  UNL1        0.1319
      5 C         142.7327  141.8215  165.8133 C.ar    1  UNL1        0.0196
      6 C         141.8529  140.8062  166.4806 C.ar    1  UNL1       -0.0015
      7 C         141.8637  140.6706  167.9744 C.ar    1  UNL1        0.0068
      8 C         142.9346  142.1816  164.3712 C.3     1  UNL1        0.1225
      9 N         143.9501  143.2837  164.3066 N.am    1  UNL1       -0.2654
     10 C         144.3757  143.6047  165.7086 C.2     1  UNL1        0.2670
     11 O         145.3778  144.6466  166.1091 O.2     1  UNL1       -0.2682
     12 C         140.9622  139.9266  165.6541 C.ar    1  UNL1        0.0102
     13 C         139.5774  140.3820  165.3006 C.ar    1  UNL1        0.0017
     14 C         138.6867  139.5025  164.4742 C.ar    1  UNL1        0.0114
     15 C         139.1808  138.1676  164.0012 C.ar    1  UNL1        0.0585
     16 CL        138.2901  137.2881  163.1747 Cl      1  UNL1       -0.0822
     17 C         140.5656  137.7122  164.3546 C.ar    1  UNL1        0.0228
     18 C         141.4564  138.5917  165.1811 C.ar    1  UNL1        0.0585
     19 CL        142.8412  138.1363  165.5345 Cl      1  UNL1       -0.0822
     20 C         140.9839  139.6554  168.6417 C.3     1  UNL1        0.0934
     21 N         139.5676  140.0045  168.9915 N.3     1  UNL1       -0.3174
     22 H         139.5634  140.7309  169.7075 H       1  UNL1        0.1192
     23 H         139.0906  139.1753  169.3455 H       1  UNL1        0.1192
     24 C         144.4518  143.9482  163.0589 C.3     1  UNL1        0.1358
     25 C         144.1167  143.3715  161.7153 C.2     1  UNL1        0.0705
     26 O         143.0132  143.9717  160.8956 O.co2   1  UNL1       -0.5474
     27 O         144.8851  142.1945  161.1914 O.co2   1  UNL1       -0.5474
@<TRIPOS>UNITY_ATOM_ATTR
26 1
charge -1
@<TRIPOS>BOND
     1     1     2    1
     2     2     3   ar
     3     3     4   ar
     4     4     5   ar
     5     5     6   ar
     6     6    12    1
     7    12    13   ar
     8    13    14   ar
     9    14    15   ar
    10    15    16    1
    11    15    17   ar
    12    17    18   ar
    13    18    19    1
    14     6     7   ar
    15     7    20    1
    16    20    21    1
    17     5     8    1
    18     8     9    1
    19     9    24    1
    20    24    25    1
    21    25    26   ar
    22    25    27   ar
    23     9    10   am
    24    10    11    2
    25     7     2   ar
    26    10     4    1
    27    18    12   ar
    28    21    22    1
    29    21    23    1
@<TRIPOS>MOLECULE
*****
 27 29 0 0 0
SMALL
GASTEIGER

@<TRIPOS>ATOM
      1 C         138.4687  138.2468  162.0798 C.3     1  UNL1        0.0518
      2 C         138.8864  138.9838  163.3177 C.ar    1  UNL1        0.0568
      3 N         138.3501  138.5673  164.6553 N.ar    1  UNL1       -0.2456
      4 C         138.7678  139.3042  165.8932 C.ar    1  UNL1        0.1319
      5 C         139.7217  140.4576  165.7936 C.ar    1  UNL1        0.0196
      6 C         140.2579  140.8740  164.4561 C.ar    1  UNL1       -0.0015
      7 C         139.8402  140.1370  163.2181 C.ar    1  UNL1        0.0068
      8 C         139.9513  140.9900  167.1770 C.3     1  UNL1        0.1225
      9 N         139.1394  140.1657  168.1316 N.am    1  UNL1       -0.2654
     10 C         138.4079  139.1238  167.3382 C.2     1  UNL1        0.2670
     11 O         137.4796  138.0841  167.8924 O.2     1  UNL1       -0.2682
     12 C         141.2118  142.0274  164.3564 C.ar    1  UNL1        0.0102
     13 C         140.6881  143.4184  164.1544 C.ar    1  UNL1        0.0017
     14 C         141.6419  144.5718  164.0547 C.ar    1  UNL1        0.0114
     15 C         143.1194  144.3341  164.1570 C.ar    1  UNL1        0.0585
     16 CL        144.0732  145.4875  164.0573 Cl      1  UNL1       -0.0822
     17 C         143.6431  142.9431  164.3591 C.ar    1  UNL1        0.0228
     18 C         142.6893  141.7897  164.4588 C.ar    1  UNL1        0.0585
     19 CL        143.2130  140.3987  164.6608 Cl      1  UNL1       -0.0822
     20 C         140.3764  140.5535  161.8805 C.3     1  UNL1        0.0934
     21 N         141.6515  139.9553  161.3643 N.3     1  UNL1       -0.3174
     22 H         142.4283  140.2464  161.9578 H       1  UNL1        0.1192
     23 H         141.8148  140.2747  160.4095 H       1  UNL1        0.1192
     24 C         139.0709  140.3507  169.6186 C.3     1  UNL1        0.1358
     25 C         140.3103  140.2034  170.4505 C.2     1  UNL1        0.0705
     26 O         141.4358  139.3348  169.9722 O.co2   1  UNL1       -0.5474
     27 O         140.4243  140.9247  171.7608 O.co2   1  UNL1       -0.5474
@<TRIPOS>UNITY_ATOM_ATTR
26 1
charge -1
@<TRIPOS>BOND
     1     1     2    1
     2     2     3   ar
     3     3     4   ar
     4     4     5   ar
     5     5     6   ar
     6     6    12    1
     7    12    13   ar
     8    13    14   ar
     9    14    15   ar
    10    15    16    1
    11    15    17   ar
    12    17    18   ar
    13    18    19    1
    14     6     7   ar
    15     7    20    1
    16    20    21    1
    17     5     8    1
    18     8     9    1
    19     9    24    1
    20    24    25    1
    21    25    26   ar
    22    25    27   ar
    23     9    10   am
    24    10    11    2
    25     7     2   ar
    26    10     4    1
    27    18    12   ar
    28    21    22    1
    29    21    23    1
@<TRIPOS>MOLECULE
*****
 27 29 0 0 0
SMALL
GASTEIGER

@<TRIPOS>ATOM
      1 C         145.3022  142.2248  163.9768 C.3     1  UNL1        0.0518
      2 C         144.0182  141.8859  164.6744 C.ar    1  UNL1        0.0568
      3 N         143.8189  142.2752  166.1092 N.ar    1  UNL1       -0.2456
      4 C         142.5349  141.9363  166.8068 C.ar    1  UNL1        0.1319
      5 C         141.4503  141.2082  166.0696 C.ar    1  UNL1        0.0196
      6 C         141.6497  140.8189  164.6348 C.ar    1  UNL1       -0.0015
      7 C         142.9337  141.1578  163.9372 C.ar    1  UNL1        0.0068
      8 C         140.3007  141.0109  167.0126 C.3     1  UNL1        0.1225
      9 N         140.6748  141.6170  168.3327 N.am    1  UNL1       -0.2654
     10 C         142.0556  142.1890  168.2055 C.2     1  UNL1        0.2670
     11 O         142.8224  142.8904  169.2871 O.2     1  UNL1       -0.2682
     12 C         140.5651  140.0908  163.8975 C.ar    1  UNL1        0.0102
     13 C         139.5102  140.8625  163.1614 C.ar    1  UNL1        0.0017
     14 C         138.4256  140.1344  162.4241 C.ar    1  UNL1        0.0114
     15 C         138.3960  138.6348  162.4229 C.ar    1  UNL1        0.0585
     16 CL        137.3114  137.9067  161.6856 Cl      1  UNL1       -0.0822
     17 C         139.4508  137.8631  163.1589 C.ar    1  UNL1        0.0228
     18 C         140.5354  138.5911  163.8963 C.ar    1  UNL1        0.0585
     19 CL        141.5903  137.8195  164.6323 Cl      1  UNL1       -0.0822
     20 C         143.1330  140.7685  162.5023 C.3     1  UNL1        0.0934
     21 N         143.7927  139.4647  162.1636 N.3     1  UNL1       -0.3174
     22 H         144.7649  139.4854  162.4715 H       1  UNL1        0.1192
     23 H         143.7586  139.3183  161.1548 H       1  UNL1        0.1192
     24 C         139.8184  141.6461  169.5639 C.3     1  UNL1        0.1358
     25 C         140.0743  142.6683  170.6315 C.2     1  UNL1        0.0705
     26 O         140.4917  142.2307  172.0042 O.co2   1  UNL1       -0.5474
     27 O         139.9128  144.1281  170.3265 O.co2   1  UNL1       -0.5474
@<TRIPOS>UNITY_ATOM_ATTR
26 1
charge -1
@<TRIPOS>BOND
     1     1     2    1
     2     2     3   ar
     3     3     4   ar
     4     4     5   ar
     5     5     6   ar
     6     6    12    1
     7    12    13   ar
     8    13    14   ar
     9    14    15   ar
    10    15    16    1
    11    15    17   ar
    12    17    18   ar
    13    18    19    1
    14     6     7   ar
    15     7    20    1
    16    20    21    1
    17     5     8    1
    18     8     9    1
    19     9    24    1
    20    24    25    1
    21    25    26   ar
    22    25    27   ar
    23     9    10   am
    24    10    11    2
    25     7     2   ar
    26    10     4    1
    27    18    12   ar
    28    21    22    1
    29    21    23    1
