@<TRIPOS>MOLECULE
*****
 34 38 0 0 0
SMALL
GASTEIGER

@<TRIPOS>ATOM
      1 C         141.0424  139.8880  159.7250 C.2     1  UNL1        0.0033
      2 C         141.0235  139.4784  161.1679 C.2     1  UNL1        0.0641
      3 C         141.1319  138.0287  161.5375 C.3     1  UNL1        0.0383
      4 C         141.1130  137.6192  162.9804 C.3     1  UNL1        0.0557
      5 C         140.9856  138.6594  164.0536 C.3     1  UNL1        0.2030
      6 N         140.8771  140.1090  163.6840 N.pl3   1  UNL1       -0.1838
      7 C         140.8961  140.5186  162.2412 C.2     1  UNL1        0.3655
      8 N         140.7876  141.9683  161.8715 N.2     1  UNL1        0.1548
      9 O         140.6603  143.0084  162.9447 O.2     1  UNL1       -0.2751
     10 C         140.6413  142.5989  164.3876 C.3     1  UNL1        0.3195
     11 C         140.7498  141.1492  164.7573 C.3     1  UNL1        0.2321
     12 C         140.7308  140.7397  166.2001 C.ar    1  UNL1        0.0285
     13 C         142.0074  140.7064  166.9871 C.ar    1  UNL1        0.0318
     14 C         141.9885  140.2969  168.4300 C.ar    1  UNL1        0.1695
     15 F         143.2650  140.2636  169.2170 F       1  UNL1       -0.2017
     16 C         140.6930  139.9207  169.0859 C.ar    1  UNL1        0.1946
     17 F         140.6741  139.5112  170.5289 F       1  UNL1       -0.1994
     18 C         139.4165  139.9540  168.2990 C.ar    1  UNL1        0.1695
     19 F         138.1210  139.5778  168.9549 F       1  UNL1       -0.2017
     20 C         139.4354  140.3635  166.8560 C.ar    1  UNL1        0.0318
     21 C         140.0812  137.3516  156.8280 C.ar    1  UNL1        0.1547
     22 C         139.9538  138.3917  157.9012 C.ar    1  UNL1        0.0384
     23 C         141.1698  138.8478  158.6517 C.ar    1  UNL1        0.0030
     24 C         142.5132  138.2637  158.3290 C.ar    1  UNL1        0.0017
     25 C         142.6406  137.2236  157.2558 C.ar    1  UNL1        0.0206
     26 C         141.4245  136.7675  156.5053 C.ar    1  UNL1        0.0994
     27 N         141.5519  135.7273  155.4320 N.ar    1  UNL1       -0.2839
     28 C         141.4960  135.9744  153.9536 C.ar    1  UNL1        0.1826
     29 N         141.6671  134.6573  153.2566 N.ar    1  UNL1       -0.2280
     30 C         141.8288  133.5961  154.3043 C.ar    1  UNL1        0.0786
     31 C         142.0269  132.1308  154.0519 C.3     1  UNL1        0.0538
     32 C         141.7576  134.2574  155.6488 C.ar    1  UNL1        0.0963
     33 C         138.3739  137.6804  154.8974 C.3     1  UNL1        0.2525
     34 O         138.8651  136.8955  156.0775 O.3     1  UNL1       -0.4700
@<TRIPOS>BOND
     1    33    34    1
     2    34    21    1
     3    21    22   ar
     4    22    23   ar
     5    23     1    1
     6     1     2    2
     7     2     3    1
     8     3     4    1
     9     4     5    1
    10     5     6    1
    11     6     7    1
    12     7     8    2
    13     8     9    1
    14     9    10    1
    15    10    11    1
    16    11    12    1
    17    12    13   ar
    18    13    14   ar
    19    14    15    1
    20    14    16   ar
    21    16    17    1
    22    16    18   ar
    23    18    19    1
    24    18    20   ar
    25    23    24   ar
    26    24    25   ar
    27    25    26   ar
    28    26    27    1
    29    27    28   ar
    30    28    29   ar
    31    29    30   ar
    32    30    31    1
    33    30    32   ar
    34    26    21   ar
    35    32    27   ar
    36     7     2    1
    37    20    12   ar
    38    11     6    1
@<TRIPOS>MOLECULE
*****
 34 38 0 0 0
SMALL
GASTEIGER

@<TRIPOS>ATOM
      1 C         140.9682  139.9960  159.5442 C.2     1  UNL1        0.0033
      2 C         140.9727  139.5672  160.9816 C.2     1  UNL1        0.0641
      3 C         141.1362  138.1178  161.3314 C.3     1  UNL1        0.0383
      4 C         141.1406  137.6890  162.7688 C.3     1  UNL1        0.0557
      5 C         140.9815  138.7097  163.8564 C.3     1  UNL1        0.2030
      6 N         140.8180  140.1591  163.5066 N.pl3   1  UNL1       -0.1838
      7 C         140.8135  140.5879  162.0692 C.2     1  UNL1        0.3655
      8 N         140.6500  142.0374  161.7194 N.2     1  UNL1        0.1548
      9 O         140.4909  143.0581  162.8070 O.2     1  UNL1       -0.2751
     10 C         140.4953  142.6292  164.2445 C.3     1  UNL1        0.3195
     11 C         140.6589  141.1798  164.5942 C.3     1  UNL1        0.2321
     12 C         140.6633  140.7511  166.0316 C.ar    1  UNL1        0.0285
     13 C         141.9494  140.7277  166.8034 C.ar    1  UNL1        0.0318
     14 C         141.9538  140.2990  168.2408 C.ar    1  UNL1        0.1695
     15 F         143.2399  140.2756  169.0125 F       1  UNL1       -0.2017
     16 C         140.6722  139.8936  168.9065 C.ar    1  UNL1        0.1946
     17 F         140.6767  139.4648  170.3439 F       1  UNL1       -0.1994
     18 C         139.3862  139.9169  168.1348 C.ar    1  UNL1        0.1695
     19 F         138.1046  139.5115  168.8005 F       1  UNL1       -0.2017
     20 C         139.3817  140.3457  166.6973 C.ar    1  UNL1        0.0318
     21 C         142.6534  137.6150  156.8534 C.ar    1  UNL1        0.1547
     22 C         142.4943  138.6357  157.9410 C.ar    1  UNL1        0.0384
     23 C         141.1273  138.9753  158.4566 C.ar    1  UNL1        0.0030
     24 C         139.9194  138.2943  157.8846 C.ar    1  UNL1        0.0017
     25 C         140.0785  137.2737  156.7969 C.ar    1  UNL1        0.0206
     26 C         141.4456  136.9340  156.2813 C.ar    1  UNL1        0.0994
     27 N         141.6047  135.9133  155.1937 N.ar    1  UNL1       -0.2839
     28 C         141.5339  136.1780  153.7190 C.ar    1  UNL1        0.1826
     29 N         141.7480  134.8770  153.0037 N.ar    1  UNL1       -0.2280
     30 C         141.9511  133.8082  154.0364 C.ar    1  UNL1        0.0786
     31 C         142.1992  132.3543  153.7635 C.3     1  UNL1        0.0538
     32 C         141.8625  134.4487  155.3899 C.ar    1  UNL1        0.0963
     33 C         144.6072  138.0543  155.1981 C.3     1  UNL1        0.2525
     34 O         144.0205  137.2753  156.3378 O.3     1  UNL1       -0.4700
@<TRIPOS>BOND
     1    33    34    1
     2    34    21    1
     3    21    22   ar
     4    22    23   ar
     5    23     1    1
     6     1     2    2
     7     2     3    1
     8     3     4    1
     9     4     5    1
    10     5     6    1
    11     6     7    1
    12     7     8    2
    13     8     9    1
    14     9    10    1
    15    10    11    1
    16    11    12    1
    17    12    13   ar
    18    13    14   ar
    19    14    15    1
    20    14    16   ar
    21    16    17    1
    22    16    18   ar
    23    18    19    1
    24    18    20   ar
    25    23    24   ar
    26    24    25   ar
    27    25    26   ar
    28    26    27    1
    29    27    28   ar
    30    28    29   ar
    31    29    30   ar
    32    30    31    1
    33    30    32   ar
    34    26    21   ar
    35    32    27   ar
    36     7     2    1
    37    20    12   ar
    38    11     6    1
@<TRIPOS>MOLECULE
*****
 34 38 0 0 0
SMALL
GASTEIGER

@<TRIPOS>ATOM
      1 C         143.5552  138.8713  162.4784 C.2     1  UNL1        0.0033
      2 C         142.7453  139.6820  163.4463 C.2     1  UNL1        0.0641
      3 C         141.8226  140.7512  162.9410 C.3     1  UNL1        0.0383
      4 C         141.0128  141.5618  163.9090 C.3     1  UNL1        0.0557
      5 C         141.1257  141.3033  165.3822 C.3     1  UNL1        0.2030
      6 N         142.0484  140.2342  165.8875 N.pl3   1  UNL1       -0.1838
      7 C         142.8582  139.4235  164.9196 C.2     1  UNL1        0.3655
      8 N         143.7811  138.3543  165.4249 N.2     1  UNL1        0.1548
      9 O         143.8940  138.0957  166.8981 O.2     1  UNL1       -0.2751
     10 C         143.0841  138.9065  167.8660 C.3     1  UNL1        0.3195
     11 C         142.1613  139.9756  167.3607 C.3     1  UNL1        0.2321
     12 C         141.3515  140.7863  168.3287 C.ar    1  UNL1        0.0285
     13 C         140.0627  140.2413  168.8692 C.ar    1  UNL1        0.0318
     14 C         139.2529  141.0519  169.8371 C.ar    1  UNL1        0.1695
     15 F         137.9641  140.5069  170.3777 F       1  UNL1       -0.2017
     16 C         139.7317  142.4076  170.2646 C.ar    1  UNL1        0.1946
     17 F         138.9218  143.2183  171.2326 F       1  UNL1       -0.1994
     18 C         141.0204  142.9527  169.7241 C.ar    1  UNL1        0.1695
     19 F         141.4993  144.3084  170.1516 F       1  UNL1       -0.2017
     20 C         141.8303  142.1420  168.7561 C.ar    1  UNL1        0.0318
     21 C         142.6829  138.3708  158.6393 C.ar    1  UNL1        0.1547
     22 C         142.7958  138.1123  160.1125 C.ar    1  UNL1        0.0384
     23 C         143.4423  139.1298  161.0051 C.ar    1  UNL1        0.0030
     24 C         143.9760  140.4058  160.4245 C.ar    1  UNL1        0.0017
     25 C         143.8631  140.6643  158.9513 C.ar    1  UNL1        0.0206
     26 C         143.2165  139.6468  158.0587 C.ar    1  UNL1        0.0994
     27 N         143.1036  139.9053  156.5854 N.ar    1  UNL1       -0.2839
     28 C         141.8861  140.4108  155.8697 C.ar    1  UNL1        0.1826
     29 N         142.2184  140.5216  154.4112 N.ar    1  UNL1       -0.2280
     30 C         143.6413  140.0846  154.2255 C.ar    1  UNL1        0.0786
     31 C         144.3863  140.0369  152.9244 C.3     1  UNL1        0.0538
     32 C         144.1883  139.7037  155.5692 C.ar    1  UNL1        0.0963
     33 C         142.8578  136.2491  157.1501 C.3     1  UNL1        0.2525
     34 O         142.0364  137.3533  157.7467 O.3     1  UNL1       -0.4700
@<TRIPOS>BOND
     1    33    34    1
     2    34    21    1
     3    21    22   ar
     4    22    23   ar
     5    23     1    1
     6     1     2    2
     7     2     3    1
     8     3     4    1
     9     4     5    1
    10     5     6    1
    11     6     7    1
    12     7     8    2
    13     8     9    1
    14     9    10    1
    15    10    11    1
    16    11    12    1
    17    12    13   ar
    18    13    14   ar
    19    14    15    1
    20    14    16   ar
    21    16    17    1
    22    16    18   ar
    23    18    19    1
    24    18    20   ar
    25    23    24   ar
    26    24    25   ar
    27    25    26   ar
    28    26    27    1
    29    27    28   ar
    30    28    29   ar
    31    29    30   ar
    32    30    31    1
    33    30    32   ar
    34    26    21   ar
    35    32    27   ar
    36     7     2    1
    37    20    12   ar
    38    11     6    1
@<TRIPOS>MOLECULE
*****
 34 38 0 0 0
SMALL
GASTEIGER

@<TRIPOS>ATOM
      1 C         141.3326  142.2579  160.8335 C.2     1  UNL1        0.0033
      2 C         141.0685  142.6057  162.2686 C.2     1  UNL1        0.0641
      3 C         140.4981  143.9471  162.6225 C.3     1  UNL1        0.0383
      4 C         140.2341  144.2949  164.0575 C.3     1  UNL1        0.0557
      5 C         140.5404  143.3013  165.1386 C.3     1  UNL1        0.2030
      6 N         141.1108  141.9599  164.7848 N.pl3   1  UNL1       -0.1838
      7 C         141.3749  141.6121  163.3498 C.2     1  UNL1        0.3655
      8 N         141.9453  140.2706  162.9958 N.2     1  UNL1        0.1548
      9 O         142.2516  139.2770  164.0770 O.2     1  UNL1       -0.2751
     10 C         141.9875  139.6249  165.5121 C.3     1  UNL1        0.3195
     11 C         141.4171  140.9663  165.8659 C.3     1  UNL1        0.2321
     12 C         141.1531  141.3140  167.3009 C.ar    1  UNL1        0.0285
     13 C         139.9219  140.7963  167.9838 C.ar    1  UNL1        0.0318
     14 C         139.6578  141.1441  169.4188 C.ar    1  UNL1        0.1695
     15 F         138.4267  140.6264  170.1017 F       1  UNL1       -0.2017
     16 C         140.6249  142.0096  170.1710 C.ar    1  UNL1        0.1946
     17 F         140.3608  142.3574  171.6061 F       1  UNL1       -0.1994
     18 C         141.8560  142.5273  169.4882 C.ar    1  UNL1        0.1695
     19 F         142.8231  143.3927  170.2403 F       1  UNL1       -0.2017
     20 C         142.1201  142.1795  168.0531 C.ar    1  UNL1        0.0318
     21 C         139.6071  143.9790  157.7014 C.ar    1  UNL1        0.1547
     22 C         139.9135  142.9854  158.7825 C.ar    1  UNL1        0.0384
     23 C         141.0263  143.2515  159.7524 C.ar    1  UNL1        0.0030
     24 C         141.8329  144.5114  159.6412 C.ar    1  UNL1        0.0017
     25 C         141.5265  145.5050  158.5600 C.ar    1  UNL1        0.0206
     26 C         140.4136  145.2388  157.5901 C.ar    1  UNL1        0.0994
     27 N         140.1073  146.2324  156.5090 N.ar    1  UNL1       -0.2839
     28 C         139.0226  147.2678  156.5446 C.ar    1  UNL1        0.1826
     29 N         139.0768  148.0404  155.2600 N.ar    1  UNL1       -0.2280
     30 C         140.1950  147.4825  154.4304 C.ar    1  UNL1        0.0786
     31 C         140.6045  147.9583  153.0681 C.3     1  UNL1        0.0538
     32 C         140.8319  146.3650  155.2023 C.ar    1  UNL1        0.0963
     33 C         137.5321  142.5900  156.9837 C.3     1  UNL1        0.2525
     34 O         138.4942  143.7128  156.7315 O.3     1  UNL1       -0.4700
@<TRIPOS>BOND
     1    33    34    1
     2    34    21    1
     3    21    22   ar
     4    22    23   ar
     5    23     1    1
     6     1     2    2
     7     2     3    1
     8     3     4    1
     9     4     5    1
    10     5     6    1
    11     6     7    1
    12     7     8    2
    13     8     9    1
    14     9    10    1
    15    10    11    1
    16    11    12    1
    17    12    13   ar
    18    13    14   ar
    19    14    15    1
    20    14    16   ar
    21    16    17    1
    22    16    18   ar
    23    18    19    1
    24    18    20   ar
    25    23    24   ar
    26    24    25   ar
    27    25    26   ar
    28    26    27    1
    29    27    28   ar
    30    28    29   ar
    31    29    30   ar
    32    30    31    1
    33    30    32   ar
    34    26    21   ar
    35    32    27   ar
    36     7     2    1
    37    20    12   ar
    38    11     6    1
@<TRIPOS>MOLECULE
*****
 34 38 0 0 0
SMALL
GASTEIGER

@<TRIPOS>ATOM
      1 C         141.2090  141.4539  160.6359 C.2     1  UNL1        0.0033
      2 C         141.6271  141.5615  162.0725 C.2     1  UNL1        0.0641
      3 C         143.0530  141.8745  162.4172 C.3     1  UNL1        0.0383
      4 C         143.4711  141.9821  163.8537 C.3     1  UNL1        0.0557
      5 C         142.4632  141.7767  164.9455 C.3     1  UNL1        0.2030
      6 N         141.0373  141.4637  164.6008 N.pl3   1  UNL1       -0.1838
      7 C         140.6193  141.3561  163.1643 C.2     1  UNL1        0.3655
      8 N         139.1933  141.0431  162.8196 N.2     1  UNL1        0.1548
      9 O         138.1855  140.8378  163.9114 O.2     1  UNL1       -0.2751
     10 C         138.6036  140.9454  165.3480 C.3     1  UNL1        0.3195
     11 C         140.0295  141.2584  165.6926 C.3     1  UNL1        0.2321
     12 C         140.4476  141.3659  167.1292 C.ar    1  UNL1        0.0285
     13 C         140.5019  142.7086  167.7959 C.ar    1  UNL1        0.0318
     14 C         140.9200  142.8162  169.2325 C.ar    1  UNL1        0.1695
     15 F         140.9743  144.1588  169.8992 F       1  UNL1       -0.2017
     16 C         141.2837  141.5812  170.0023 C.ar    1  UNL1        0.1946
     17 F         141.7018  141.6889  171.4388 F       1  UNL1       -0.1994
     18 C         141.2294  140.2386  169.3355 C.ar    1  UNL1        0.1695
     19 F         141.5931  139.0037  170.1053 F       1  UNL1       -0.2017
     20 C         140.8113  140.1310  167.8990 C.ar    1  UNL1        0.0318
     21 C         143.8137  140.6815  157.7430 C.ar    1  UNL1        0.1547
     22 C         142.8059  140.4761  158.8348 C.ar    1  UNL1        0.0384
     23 C         142.2168  141.6593  159.5441 C.ar    1  UNL1        0.0030
     24 C         142.6356  143.0479  159.1615 C.ar    1  UNL1        0.0017
     25 C         143.6435  143.2533  158.0697 C.ar    1  UNL1        0.0206
     26 C         144.2325  142.0700  157.3604 C.ar    1  UNL1        0.0994
     27 N         145.2403  142.2754  156.2686 N.ar    1  UNL1       -0.2839
     28 C         144.9553  142.8019  154.8932 C.ar    1  UNL1        0.1826
     29 N         146.2490  142.8422  154.1350 N.ar    1  UNL1       -0.2280
     30 C         147.3335  142.3407  155.0418 C.ar    1  UNL1        0.0786
     31 C         148.7864  142.2120  154.6915 C.3     1  UNL1        0.0538
     32 C         146.7101  141.9904  156.3604 C.ar    1  UNL1        0.0963
     33 C         143.8164  139.0351  155.7331 C.3     1  UNL1        0.2525
     34 O         144.4027  139.4982  157.0338 O.3     1  UNL1       -0.4700
@<TRIPOS>BOND
     1    33    34    1
     2    34    21    1
     3    21    22   ar
     4    22    23   ar
     5    23     1    1
     6     1     2    2
     7     2     3    1
     8     3     4    1
     9     4     5    1
    10     5     6    1
    11     6     7    1
    12     7     8    2
    13     8     9    1
    14     9    10    1
    15    10    11    1
    16    11    12    1
    17    12    13   ar
    18    13    14   ar
    19    14    15    1
    20    14    16   ar
    21    16    17    1
    22    16    18   ar
    23    18    19    1
    24    18    20   ar
    25    23    24   ar
    26    24    25   ar
    27    25    26   ar
    28    26    27    1
    29    27    28   ar
    30    28    29   ar
    31    29    30   ar
    32    30    31    1
    33    30    32   ar
    34    26    21   ar
    35    32    27   ar
    36     7     2    1
    37    20    12   ar
    38    11     6    1
@<TRIPOS>MOLECULE
*****
 34 38 0 0 0
SMALL
GASTEIGER

@<TRIPOS>ATOM
      1 C         141.6159  141.1611  160.7154 C.2     1  UNL1        0.0033
      2 C         141.3914  141.4569  162.1687 C.2     1  UNL1        0.0641
      3 C         140.8984  142.8090  162.5915 C.3     1  UNL1        0.0383
      4 C         140.6739  143.1047  164.0448 C.3     1  UNL1        0.0557
      5 C         140.9424  142.0483  165.0753 C.3     1  UNL1        0.2030
      6 N         141.4354  140.6962  164.6526 N.pl3   1  UNL1       -0.1838
      7 C         141.6599  140.4005  163.1993 C.2     1  UNL1        0.3655
      8 N         142.1529  139.0484  162.7764 N.2     1  UNL1        0.1548
      9 O         142.4214  137.9920  163.8070 O.2     1  UNL1       -0.2751
     10 C         142.1969  138.2878  165.2603 C.3     1  UNL1        0.3195
     11 C         141.7039  139.6399  165.6831 C.3     1  UNL1        0.2321
     12 C         141.4794  139.9356  167.1364 C.ar    1  UNL1        0.0285
     13 C         142.6499  140.1883  168.0399 C.ar    1  UNL1        0.0318
     14 C         142.4254  140.4840  169.4932 C.ar    1  UNL1        0.1695
     15 F         143.5958  140.7368  170.3967 F       1  UNL1       -0.2017
     16 C         141.0305  140.5270  170.0431 C.ar    1  UNL1        0.1946
     17 F         140.8060  140.8228  171.4964 F       1  UNL1       -0.1994
     18 C         139.8600  140.2743  169.1396 C.ar    1  UNL1        0.1695
     19 F         138.4651  140.3173  169.6895 F       1  UNL1       -0.2017
     20 C         140.0845  139.9786  167.6863 C.ar    1  UNL1        0.0318
     21 C         139.7621  143.3041  157.9367 C.ar    1  UNL1        0.1547
     22 C         140.0306  142.2477  158.9673 C.ar    1  UNL1        0.0384
     23 C         141.3474  142.2175  159.6849 C.ar    1  UNL1        0.0030
     24 C         142.3959  143.2436  159.3719 C.ar    1  UNL1        0.0017
     25 C         142.1274  144.3000  158.3414 C.ar    1  UNL1        0.0206
     26 C         140.8104  144.3302  157.6238 C.ar    1  UNL1        0.0994
     27 N         140.5419  145.3866  156.5933 N.ar    1  UNL1       -0.2839
     28 C         141.0442  145.3874  155.1798 C.ar    1  UNL1        0.1826
     29 N         140.5367  146.6289  154.5082 N.ar    1  UNL1       -0.2280
     30 C         139.7208  147.3954  155.5066 C.ar    1  UNL1        0.0786
     31 C         139.0239  148.7006  155.2597 C.3     1  UNL1        0.0538
     32 C         139.7240  146.6276  156.7952 C.ar    1  UNL1        0.0963
     33 C         137.5805  142.1090  157.1866 C.3     1  UNL1        0.2525
     34 O         138.4451  143.3343  157.2192 O.3     1  UNL1       -0.4700
@<TRIPOS>BOND
     1    33    34    1
     2    34    21    1
     3    21    22   ar
     4    22    23   ar
     5    23     1    1
     6     1     2    2
     7     2     3    1
     8     3     4    1
     9     4     5    1
    10     5     6    1
    11     6     7    1
    12     7     8    2
    13     8     9    1
    14     9    10    1
    15    10    11    1
    16    11    12    1
    17    12    13   ar
    18    13    14   ar
    19    14    15    1
    20    14    16   ar
    21    16    17    1
    22    16    18   ar
    23    18    19    1
    24    18    20   ar
    25    23    24   ar
    26    24    25   ar
    27    25    26   ar
    28    26    27    1
    29    27    28   ar
    30    28    29   ar
    31    29    30   ar
    32    30    31    1
    33    30    32   ar
    34    26    21   ar
    35    32    27   ar
    36     7     2    1
    37    20    12   ar
    38    11     6    1
@<TRIPOS>MOLECULE
*****
 34 38 0 0 0
SMALL
GASTEIGER

@<TRIPOS>ATOM
      1 C         142.4446  139.5783  160.8606 C.2     1  UNL1        0.0033
      2 C         143.2596  140.5290  160.0348 C.2     1  UNL1        0.0641
      3 C         143.6576  141.8608  160.5985 C.3     1  UNL1        0.0383
      4 C         144.4726  142.8115  159.7727 C.3     1  UNL1        0.0557
      5 C         144.8896  142.4302  158.3832 C.3     1  UNL1        0.2030
      6 N         144.4917  141.0984  157.8195 N.pl3   1  UNL1       -0.1838
      7 C         143.6767  140.1478  158.6453 C.2     1  UNL1        0.3655
      8 N         143.2787  138.8158  158.0816 N.2     1  UNL1        0.1548
      9 O         143.6958  138.4346  156.6921 O.2     1  UNL1       -0.2751
     10 C         144.5109  139.3853  155.8663 C.3     1  UNL1        0.3195
     11 C         144.9088  140.7172  156.4300 C.3     1  UNL1        0.2321
     12 C         145.7238  141.6678  155.6042 C.ar    1  UNL1        0.0285
     13 C         145.0439  142.7385  154.8033 C.ar    1  UNL1        0.0318
     14 C         145.8589  143.6892  153.9775 C.ar    1  UNL1        0.1695
     15 F         145.1789  144.7599  153.1767 F       1  UNL1       -0.2017
     16 C         147.3538  143.5691  153.9525 C.ar    1  UNL1        0.1946
     17 F         148.1689  144.5198  153.1266 F       1  UNL1       -0.1994
     18 C         148.0338  142.4985  154.7533 C.ar    1  UNL1        0.1695
     19 F         149.5288  142.3784  154.7282 F       1  UNL1       -0.2017
     20 C         147.2188  141.5478  155.5792 C.ar    1  UNL1        0.0318
     21 C         142.4776  139.9791  164.8088 C.ar    1  UNL1        0.1547
     22 C         142.8947  139.5979  163.4193 C.ar    1  UNL1        0.0384
     23 C         142.0275  139.9595  162.2501 C.ar    1  UNL1        0.0030
     24 C         140.7431  140.7024  162.4704 C.ar    1  UNL1        0.0017
     25 C         140.3260  141.0836  163.8599 C.ar    1  UNL1        0.0206
     26 C         141.1933  140.7219  165.0291 C.ar    1  UNL1        0.0994
     27 N         140.7762  141.1032  166.4186 N.ar    1  UNL1       -0.2839
     28 C         140.0491  140.2248  167.3932 C.ar    1  UNL1        0.1826
     29 N         139.8365  141.0085  168.6544 N.ar    1  UNL1       -0.2280
     30 C         140.4323  142.3712  168.4594 C.ar    1  UNL1        0.0786
     31 C         140.4451  143.4806  169.4688 C.3     1  UNL1        0.0538
     32 C         141.0131  142.4297  167.0776 C.ar    1  UNL1        0.0963
     33 C         143.7072  138.1834  166.2280 C.3     1  UNL1        0.2525
     34 O         143.3450  139.6174  165.9780 O.3     1  UNL1       -0.4700
@<TRIPOS>BOND
     1    33    34    1
     2    34    21    1
     3    21    22   ar
     4    22    23   ar
     5    23     1    1
     6     1     2    2
     7     2     3    1
     8     3     4    1
     9     4     5    1
    10     5     6    1
    11     6     7    1
    12     7     8    2
    13     8     9    1
    14     9    10    1
    15    10    11    1
    16    11    12    1
    17    12    13   ar
    18    13    14   ar
    19    14    15    1
    20    14    16   ar
    21    16    17    1
    22    16    18   ar
    23    18    19    1
    24    18    20   ar
    25    23    24   ar
    26    24    25   ar
    27    25    26   ar
    28    26    27    1
    29    27    28   ar
    30    28    29   ar
    31    29    30   ar
    32    30    31    1
    33    30    32   ar
    34    26    21   ar
    35    32    27   ar
    36     7     2    1
    37    20    12   ar
    38    11     6    1
@<TRIPOS>MOLECULE
*****
 34 38 0 0 0
SMALL
GASTEIGER

@<TRIPOS>ATOM
      1 C         140.4598  140.8770  160.8461 C.2     1  UNL1        0.0033
      2 C         140.8525  140.5238  162.2501 C.2     1  UNL1        0.0641
      3 C         141.5432  139.2222  162.5308 C.3     1  UNL1        0.0383
      4 C         141.9358  138.8691  163.9348 C.3     1  UNL1        0.0557
      5 C         141.6377  139.8175  165.0580 C.3     1  UNL1        0.2030
      6 N         140.9470  141.1191  164.7773 N.pl3   1  UNL1       -0.1838
      7 C         140.5544  141.4722  163.3733 C.2     1  UNL1        0.3655
      8 N         139.8636  142.7738  163.0925 N.2     1  UNL1        0.1548
      9 O         139.5655  143.7222  164.2158 O.2     1  UNL1       -0.2751
     10 C         139.9582  143.3690  165.6198 C.3     1  UNL1        0.3195
     11 C         140.6489  142.0675  165.9005 C.3     1  UNL1        0.2321
     12 C         141.0415  141.7143  167.3044 C.ar    1  UNL1        0.0285
     13 C         140.0812  140.9749  168.1883 C.ar    1  UNL1        0.0318
     14 C         140.4738  140.6218  169.5923 C.ar    1  UNL1        0.1695
     15 F         139.5135  139.8824  170.4762 F       1  UNL1       -0.2017
     16 C         141.8267  141.0080  170.1124 C.ar    1  UNL1        0.1946
     17 F         142.2193  140.6549  171.5165 F       1  UNL1       -0.1994
     18 C         142.7870  141.7474  169.2286 C.ar    1  UNL1        0.1695
     19 F         144.1398  142.1337  169.7487 F       1  UNL1       -0.2017
     20 C         142.3944  142.1006  167.8246 C.ar    1  UNL1        0.0318
     21 C         142.4001  139.0045  157.9342 C.ar    1  UNL1        0.1547
     22 C         142.1020  139.9529  159.0575 C.ar    1  UNL1        0.0384
     23 C         140.7579  139.9286  159.7229 C.ar    1  UNL1        0.0030
     24 C         139.7119  138.9558  159.2650 C.ar    1  UNL1        0.0017
     25 C         140.0100  138.0074  158.1418 C.ar    1  UNL1        0.0206
     26 C         141.3542  138.0317  157.4764 C.ar    1  UNL1        0.0994
     27 N         141.6523  137.0833  156.3532 N.ar    1  UNL1       -0.2839
     28 C         141.4295  137.3475  154.8935 C.ar    1  UNL1        0.1826
     29 N         141.8650  136.1317  154.1306 N.ar    1  UNL1       -0.2280
     30 C         142.3570  135.1160  155.1187 C.ar    1  UNL1        0.0786
     31 C         142.8874  133.7518  154.7909 C.3     1  UNL1        0.0538
     32 C         142.2255  135.7042  156.4923 C.ar    1  UNL1        0.0963
     33 C         144.0103  139.9927  156.1507 C.3     1  UNL1        0.2525
     34 O         143.7443  139.0289  157.2688 O.3     1  UNL1       -0.4700
@<TRIPOS>BOND
     1    33    34    1
     2    34    21    1
     3    21    22   ar
     4    22    23   ar
     5    23     1    1
     6     1     2    2
     7     2     3    1
     8     3     4    1
     9     4     5    1
    10     5     6    1
    11     6     7    1
    12     7     8    2
    13     8     9    1
    14     9    10    1
    15    10    11    1
    16    11    12    1
    17    12    13   ar
    18    13    14   ar
    19    14    15    1
    20    14    16   ar
    21    16    17    1
    22    16    18   ar
    23    18    19    1
    24    18    20   ar
    25    23    24   ar
    26    24    25   ar
    27    25    26   ar
    28    26    27    1
    29    27    28   ar
    30    28    29   ar
    31    29    30   ar
    32    30    31    1
    33    30    32   ar
    34    26    21   ar
    35    32    27   ar
    36     7     2    1
    37    20    12   ar
    38    11     6    1
@<TRIPOS>MOLECULE
*****
 34 38 0 0 0
SMALL
GASTEIGER

@<TRIPOS>ATOM
      1 C         143.1561  138.7649  162.4816 C.2     1  UNL1        0.0033
      2 C         142.3820  139.5889  163.4675 C.2     1  UNL1        0.0641
      3 C         141.3904  140.6041  162.9815 C.3     1  UNL1        0.0383
      4 C         140.6164  141.4281  163.9673 C.3     1  UNL1        0.0557
      5 C         140.8339  141.2369  165.4391 C.3     1  UNL1        0.2030
      6 N         141.8255  140.2218  165.9250 N.pl3   1  UNL1       -0.1838
      7 C         142.5995  139.3978  164.9392 C.2     1  UNL1        0.3655
      8 N         143.5912  138.3826  165.4252 N.2     1  UNL1        0.1548
      9 O         143.8088  138.1915  166.8970 O.2     1  UNL1       -0.2751
     10 C         143.0347  139.0155  167.8828 C.3     1  UNL1        0.3195
     11 C         142.0431  140.0307  167.3968 C.3     1  UNL1        0.2321
     12 C         141.2691  140.8547  168.3826 C.ar    1  UNL1        0.0285
     13 C         141.7939  142.1902  168.8196 C.ar    1  UNL1        0.0318
     14 C         141.0199  143.0142  169.8054 C.ar    1  UNL1        0.1695
     15 F         141.5447  144.3498  170.2424 F       1  UNL1       -0.2017
     16 C         139.7210  142.5027  170.3543 C.ar    1  UNL1        0.1946
     17 F         138.9470  143.3268  171.3402 F       1  UNL1       -0.1994
     18 C         139.1962  141.1672  169.9174 C.ar    1  UNL1        0.1695
     19 F         137.8973  140.6557  170.4663 F       1  UNL1       -0.2017
     20 C         139.9702  140.3432  168.9315 C.ar    1  UNL1        0.0318
     21 C         143.6367  140.0398  158.7542 C.ar    1  UNL1        0.1547
     22 C         143.8543  139.8486  160.2260 C.ar    1  UNL1        0.0384
     23 C         142.9385  138.9560  161.0098 C.ar    1  UNL1        0.0030
     24 C         141.8050  138.2544  160.3219 C.ar    1  UNL1        0.0017
     25 C         141.5875  138.4456  158.8501 C.ar    1  UNL1        0.0206
     26 C         142.5033  139.3383  158.0663 C.ar    1  UNL1        0.0994
     27 N         142.2858  139.5294  156.5945 N.ar    1  UNL1       -0.2839
     28 C         143.1372  138.9640  155.4966 C.ar    1  UNL1        0.1826
     29 N         142.5562  139.4047  154.1858 N.ar    1  UNL1       -0.2280
     30 C         141.3457  140.2424  154.4735 C.ar    1  UNL1        0.0786
     31 C         140.4581  140.8894  153.4520 C.3     1  UNL1        0.0538
     32 C         141.1786  140.3195  155.9622 C.ar    1  UNL1        0.0963
     33 C         144.5114  142.4174  158.1781 C.3     1  UNL1        0.2525
     34 O         144.5526  140.9325  157.9704 O.3     1  UNL1       -0.4700
@<TRIPOS>BOND
     1    33    34    1
     2    34    21    1
     3    21    22   ar
     4    22    23   ar
     5    23     1    1
     6     1     2    2
     7     2     3    1
     8     3     4    1
     9     4     5    1
    10     5     6    1
    11     6     7    1
    12     7     8    2
    13     8     9    1
    14     9    10    1
    15    10    11    1
    16    11    12    1
    17    12    13   ar
    18    13    14   ar
    19    14    15    1
    20    14    16   ar
    21    16    17    1
    22    16    18   ar
    23    18    19    1
    24    18    20   ar
    25    23    24   ar
    26    24    25   ar
    27    25    26   ar
    28    26    27    1
    29    27    28   ar
    30    28    29   ar
    31    29    30   ar
    32    30    31    1
    33    30    32   ar
    34    26    21   ar
    35    32    27   ar
    36     7     2    1
    37    20    12   ar
    38    11     6    1
