@<TRIPOS>MOLECULE
*****
 36 40 0 0 0
SMALL
GASTEIGER

@<TRIPOS>ATOM
      1 C         142.6138  138.5599  163.0281 C.ar    1  UNL1        0.1533
      2 C         142.1815  138.9184  164.4191 C.ar    1  UNL1        0.0527
      3 C         143.0096  139.8597  165.2427 C.ar    1  UNL1        0.0510
      4 C         144.2699  140.4425  164.6754 C.ar    1  UNL1        0.0160
      5 C         144.7022  140.0841  163.2845 C.ar    1  UNL1        0.0190
      6 C         143.8742  139.1428  162.4608 C.ar    1  UNL1        0.0850
      7 N         142.5772  140.2180  166.6335 N.pl3   1  UNL1       -0.3057
      8 C         142.8144  139.1693  167.6794 C.3     1  UNL1        0.0926
      9 C         142.4977  139.2213  169.1447 C.3     1  UNL1        0.0429
     10 C         141.8657  140.3349  169.9260 C.3     1  UNL1        0.0952
     11 N         141.3943  141.6715  169.4350 N.am    1  UNL1       -0.2777
     12 C         140.8002  142.5745  170.4750 C.2     1  UNL1        0.2262
     13 C         140.2977  143.9342  170.0894 C.3     1  UNL1        0.0948
     14 O         140.7085  142.1177  171.9009 O.2     1  UNL1       -0.2749
     15 C         141.4384  142.2247  168.0414 C.3     1  UNL1        0.1148
     16 C         141.9648  141.5779  166.7946 C.3     1  UNL1        0.1123
     17 C         140.4788  138.0771  161.6285 C.3     1  UNL1        0.2525
     18 O         141.7858  137.6186  162.2044 O.3     1  UNL1       -0.4701
     19 N         144.3065  138.7844  161.0699 N.pl3   1  UNL1       -0.2802
     20 H         144.9553  138.0577  160.9280 H       1  UNL1        0.1552
     21 C         143.7504  139.5332  159.8952 C.ar    1  UNL1        0.2208
     22 N         143.6824  138.8740  158.5495 N.ar    1  UNL1       -0.2111
     23 C         143.1262  139.6229  157.3748 C.ar    1  UNL1        0.1147
     24 C         142.6381  141.0309  157.5458 C.ar    1  UNL1        0.0960
     25 CL        142.0820  141.7797  156.3711 Cl      1  UNL1       -0.0790
     26 C         142.7061  141.6901  158.8915 C.ar    1  UNL1        0.1138
     27 N         143.2623  140.9413  160.0661 N.ar    1  UNL1       -0.2111
     28 C         142.2180  143.0982  159.0625 C.ar    1  UNL1        0.1031
     29 C         142.5663  144.2646  158.1860 C.ar    1  UNL1        0.1196
     30 N         141.8594  145.4742  158.7218 N.ar    1  UNL1       -0.2248
     31 C         141.0744  145.0554  159.9294 C.ar    1  UNL1        0.1479
     32 C         140.1863  145.8216  160.8645 C.ar    1  UNL1        0.0374
     33 C         139.5199  145.1192  162.0101 C.ar    1  UNL1        0.0046
     34 C         139.7416  143.6507  162.2207 C.ar    1  UNL1        0.0191
     35 C         140.6296  142.8845  161.2856 C.ar    1  UNL1        0.0815
     36 N         141.2960  143.5869  160.1400 N.ar    1  UNL1       -0.2874
@<TRIPOS>BOND
     1    17    18    1
     2    18     1    1
     3     1     2   ar
     4     2     3   ar
     5     3     7    1
     6     7     8    1
     7     8     9    1
     8     9    10    1
     9    10    11    1
    10    11    12   am
    11    12    13    1
    12    12    14    2
    13    11    15    1
    14    15    16    1
    15     3     4   ar
    16     4     5   ar
    17     5     6   ar
    18     6    19    1
    19    19    21    1
    20    21    22   ar
    21    22    23   ar
    22    23    24   ar
    23    24    25    1
    24    24    26   ar
    25    26    28    1
    26    28    29   ar
    27    29    30   ar
    28    30    31   ar
    29    31    32   ar
    30    32    33   ar
    31    33    34   ar
    32    34    35   ar
    33    35    36   ar
    34    26    27   ar
    35     6     1   ar
    36    27    21   ar
    37    16     7    1
    38    36    28   ar
    39    36    31   ar
    40    19    20    1
@<TRIPOS>MOLECULE
*****
 36 40 0 0 0
SMALL
GASTEIGER

@<TRIPOS>ATOM
      1 C         144.4087  140.4333  163.1313 C.ar    1  UNL1        0.1533
      2 C         143.9733  140.7889  164.5220 C.ar    1  UNL1        0.0527
      3 C         142.9947  139.9143  165.2483 C.ar    1  UNL1        0.0510
      4 C         142.4516  138.6840  164.5839 C.ar    1  UNL1        0.0160
      5 C         142.8870  138.3284  163.1932 C.ar    1  UNL1        0.0190
      6 C         143.8656  139.2030  162.4669 C.ar    1  UNL1        0.0850
      7 N         142.5594  140.2700  166.6389 N.pl3   1  UNL1       -0.3057
      8 C         142.7837  139.2147  167.6811 C.3     1  UNL1        0.0926
      9 C         142.4612  139.2628  169.1452 C.3     1  UNL1        0.0429
     10 C         141.8349  140.3780  169.9288 C.3     1  UNL1        0.0952
     11 N         141.3763  141.7205  169.4418 N.am    1  UNL1       -0.2777
     12 C         140.7850  142.6236  170.4834 C.2     1  UNL1        0.2262
     13 C         140.2950  143.9890  170.1016 C.3     1  UNL1        0.0948
     14 O         140.6836  142.1613  171.9068 O.2     1  UNL1       -0.2749
     15 C         141.4307  142.2795  168.0509 C.3     1  UNL1        0.1148
     16 C         141.9572  141.6340  166.8035 C.3     1  UNL1        0.1123
     17 C         144.9294  142.5989  161.7938 C.3     1  UNL1        0.2525
     18 O         145.3873  141.3079  162.4051 O.3     1  UNL1       -0.4701
     19 N         144.3010  138.8473  161.0763 N.pl3   1  UNL1       -0.2802
     20 H         145.1498  138.3696  160.9333 H       1  UNL1        0.1552
     21 C         143.4431  139.2196  159.9035 C.ar    1  UNL1        0.2208
     22 N         143.3760  138.3174  158.7070 N.ar    1  UNL1       -0.2111
     23 C         142.5182  138.6896  157.5342 C.ar    1  UNL1        0.1147
     24 C         141.7274  139.9640  157.5578 C.ar    1  UNL1        0.0960
     25 CL        140.8695  140.3362  156.3850 Cl      1  UNL1       -0.0790
     26 C         141.7945  140.8662  158.7544 C.ar    1  UNL1        0.1138
     27 N         142.6523  140.4940  159.9271 N.ar    1  UNL1       -0.2111
     28 C         141.0037  142.1406  158.7780 C.ar    1  UNL1        0.1031
     29 C         139.8190  142.4270  159.6523 C.ar    1  UNL1        0.1196
     30 N         139.3419  143.8158  159.3461 N.ar    1  UNL1       -0.2248
     31 C         140.2318  144.3877  158.2826 C.ar    1  UNL1        0.1479
     32 C         140.2395  145.7174  157.5885 C.ar    1  UNL1        0.0374
     33 C         141.2744  146.0118  156.5433 C.ar    1  UNL1        0.0046
     34 C         142.3014  144.9764  156.1922 C.ar    1  UNL1        0.0191
     35 C         142.2936  143.6467  156.8863 C.ar    1  UNL1        0.0815
     36 N         141.2588  143.3524  157.9315 N.ar    1  UNL1       -0.2874
@<TRIPOS>BOND
     1    17    18    1
     2    18     1    1
     3     1     2   ar
     4     2     3   ar
     5     3     7    1
     6     7     8    1
     7     8     9    1
     8     9    10    1
     9    10    11    1
    10    11    12   am
    11    12    13    1
    12    12    14    2
    13    11    15    1
    14    15    16    1
    15     3     4   ar
    16     4     5   ar
    17     5     6   ar
    18     6    19    1
    19    19    21    1
    20    21    22   ar
    21    22    23   ar
    22    23    24   ar
    23    24    25    1
    24    24    26   ar
    25    26    28    1
    26    28    29   ar
    27    29    30   ar
    28    30    31   ar
    29    31    32   ar
    30    32    33   ar
    31    33    34   ar
    32    34    35   ar
    33    35    36   ar
    34    26    27   ar
    35     6     1   ar
    36    27    21   ar
    37    16     7    1
    38    36    28   ar
    39    36    31   ar
    40    19    20    1
@<TRIPOS>MOLECULE
*****
 36 40 0 0 0
SMALL
GASTEIGER

@<TRIPOS>ATOM
      1 C         141.5611  144.3532  162.9878 C.ar    1  UNL1        0.1533
      2 C         141.4367  143.4869  164.2060 C.ar    1  UNL1        0.0527
      3 C         140.0944  143.2733  164.8406 C.ar    1  UNL1        0.0510
      4 C         138.8765  143.9261  164.2569 C.ar    1  UNL1        0.0160
      5 C         139.0010  144.7924  163.0387 C.ar    1  UNL1        0.0190
      6 C         140.3433  145.0060  162.4041 C.ar    1  UNL1        0.0850
      7 N         139.9701  142.4070  166.0587 N.pl3   1  UNL1       -0.3057
      8 C         139.3114  141.0761  165.8465 C.3     1  UNL1        0.0926
      9 C         139.0409  139.9958  166.8513 C.3     1  UNL1        0.0429
     10 C         139.3622  139.9793  168.3163 C.3     1  UNL1        0.0952
     11 N         140.0334  141.0392  169.1385 N.am    1  UNL1       -0.2777
     12 C         140.2126  140.7186  170.5929 C.2     1  UNL1        0.2262
     13 C         140.8726  141.7109  171.5039 C.3     1  UNL1        0.0948
     14 O         139.7318  139.4058  171.1363 O.2     1  UNL1       -0.2749
     15 C         140.5490  142.3774  168.6988 C.3     1  UNL1        0.1148
     16 C         140.5209  142.9861  167.3281 C.3     1  UNL1        0.1123
     17 C         144.1482  144.1270  163.0654 C.3     1  UNL1        0.2525
     18 O         142.9034  144.5668  162.3532 O.3     1  UNL1       -0.4701
     19 N         140.4676  145.8723  161.1859 N.pl3   1  UNL1       -0.2802
     20 H         140.4691  146.8526  161.2771 H       1  UNL1        0.1552
     21 C         140.5895  145.2452  159.8288 C.ar    1  UNL1        0.2208
     22 N         141.6339  145.7323  158.8686 N.ar    1  UNL1       -0.2111
     23 C         141.7559  145.1051  157.5115 C.ar    1  UNL1        0.1147
     24 C         140.8334  143.9909  157.1146 C.ar    1  UNL1        0.0960
     25 CL        140.9554  143.3637  155.7574 Cl      1  UNL1       -0.0790
     26 C         139.7890  143.5038  158.0748 C.ar    1  UNL1        0.1138
     27 N         139.6671  144.1309  159.4319 N.ar    1  UNL1       -0.2111
     28 C         138.8665  142.3895  157.6778 C.ar    1  UNL1        0.1031
     29 C         138.8258  141.0193  158.2869 C.ar    1  UNL1        0.1196
     30 N         137.7570  140.2329  157.5876 N.ar    1  UNL1       -0.2248
     31 C         137.1371  141.1170  156.5463 C.ar    1  UNL1        0.1479
     32 C         136.0369  140.8805  155.5546 C.ar    1  UNL1        0.0374
     33 C         135.6224  141.9770  154.6187 C.ar    1  UNL1        0.0046
     34 C         136.3082  143.3099  154.6745 C.ar    1  UNL1        0.0191
     35 C         137.4084  143.5463  155.6662 C.ar    1  UNL1        0.0815
     36 N         137.8229  142.4499  156.6021 N.ar    1  UNL1       -0.2874
@<TRIPOS>BOND
     1    17    18    1
     2    18     1    1
     3     1     2   ar
     4     2     3   ar
     5     3     7    1
     6     7     8    1
     7     8     9    1
     8     9    10    1
     9    10    11    1
    10    11    12   am
    11    12    13    1
    12    12    14    2
    13    11    15    1
    14    15    16    1
    15     3     4   ar
    16     4     5   ar
    17     5     6   ar
    18     6    19    1
    19    19    21    1
    20    21    22   ar
    21    22    23   ar
    22    23    24   ar
    23    24    25    1
    24    24    26   ar
    25    26    28    1
    26    28    29   ar
    27    29    30   ar
    28    30    31   ar
    29    31    32   ar
    30    32    33   ar
    31    33    34   ar
    32    34    35   ar
    33    35    36   ar
    34    26    27   ar
    35     6     1   ar
    36    27    21   ar
    37    16     7    1
    38    36    28   ar
    39    36    31   ar
    40    19    20    1
@<TRIPOS>MOLECULE
*****
 36 40 0 0 0
SMALL
GASTEIGER

@<TRIPOS>ATOM
      1 C         144.3844  140.5223  163.0952 C.ar    1  UNL1        0.1533
      2 C         143.9508  140.8631  164.4902 C.ar    1  UNL1        0.0527
      3 C         142.9817  139.9747  165.2125 C.ar    1  UNL1        0.0510
      4 C         142.4462  138.7456  164.5398 C.ar    1  UNL1        0.0160
      5 C         142.8797  138.4049  163.1449 C.ar    1  UNL1        0.0190
      6 C         143.8488  139.2932  162.4225 C.ar    1  UNL1        0.0850
      7 N         142.5481  140.3155  166.6074 N.pl3   1  UNL1       -0.3057
      8 C         142.7760  139.2501  167.6384 C.3     1  UNL1        0.0926
      9 C         142.4560  139.2828  169.1035 C.3     1  UNL1        0.0429
     10 C         141.8292  140.3889  169.8995 C.3     1  UNL1        0.0952
     11 N         141.3676  141.7356  169.4269 N.am    1  UNL1       -0.2777
     12 C         140.7767  142.6270  170.4787 C.2     1  UNL1        0.2262
     13 C         140.2839  143.9955  170.1117 C.3     1  UNL1        0.0948
     14 O         140.6785  142.1501  171.8975 O.2     1  UNL1       -0.2749
     15 C         141.4187  142.3088  168.0417 C.3     1  UNL1        0.1148
     16 C         141.9441  141.6768  166.7869 C.3     1  UNL1        0.1123
     17 C         144.8551  142.6084  161.6197 C.3     1  UNL1        0.2525
     18 O         145.3534  141.4107  162.3729 O.3     1  UNL1       -0.4701
     19 N         144.2824  138.9524  161.0276 N.pl3   1  UNL1       -0.2802
     20 H         145.0092  138.3045  160.8825 H       1  UNL1        0.1552
     21 C         143.6085  139.5988  159.8537 C.ar    1  UNL1        0.2208
     22 N         142.2621  140.2386  160.0206 N.ar    1  UNL1       -0.2111
     23 C         141.5882  140.8850  158.8467 C.ar    1  UNL1        0.1147
     24 C         142.2607  140.8915  157.5059 C.ar    1  UNL1        0.0960
     25 CL        141.5868  141.5379  156.3320 Cl      1  UNL1       -0.0790
     26 C         143.6071  140.2517  157.3390 C.ar    1  UNL1        0.1138
     27 N         144.2809  139.6054  158.5129 N.ar    1  UNL1       -0.2111
     28 C         144.2796  140.2582  155.9982 C.ar    1  UNL1        0.1031
     29 C         143.8661  139.4554  154.8005 C.ar    1  UNL1        0.1196
     30 N         144.8146  139.7698  153.6819 N.ar    1  UNL1       -0.2248
     31 C         145.8143  140.7670  154.1881 C.ar    1  UNL1        0.1479
     32 C         146.9829  141.4391  153.5305 C.ar    1  UNL1        0.0374
     33 C         147.8209  142.4131  154.3045 C.ar    1  UNL1        0.0046
     34 C         147.4902  142.7150  155.7361 C.ar    1  UNL1        0.0191
     35 C         146.3216  142.0429  156.3937 C.ar    1  UNL1        0.0815
     36 N         145.4836  141.0689  155.6197 N.ar    1  UNL1       -0.2874
@<TRIPOS>BOND
     1    17    18    1
     2    18     1    1
     3     1     2   ar
     4     2     3   ar
     5     3     7    1
     6     7     8    1
     7     8     9    1
     8     9    10    1
     9    10    11    1
    10    11    12   am
    11    12    13    1
    12    12    14    2
    13    11    15    1
    14    15    16    1
    15     3     4   ar
    16     4     5   ar
    17     5     6   ar
    18     6    19    1
    19    19    21    1
    20    21    22   ar
    21    22    23   ar
    22    23    24   ar
    23    24    25    1
    24    24    26   ar
    25    26    28    1
    26    28    29   ar
    27    29    30   ar
    28    30    31   ar
    29    31    32   ar
    30    32    33   ar
    31    33    34   ar
    32    34    35   ar
    33    35    36   ar
    34    26    27   ar
    35     6     1   ar
    36    27    21   ar
    37    16     7    1
    38    36    28   ar
    39    36    31   ar
    40    19    20    1
@<TRIPOS>MOLECULE
*****
 36 40 0 0 0
SMALL
GASTEIGER

@<TRIPOS>ATOM
      1 C         144.3385  140.1556  163.2174 C.ar    1  UNL1        0.1533
      2 C         143.9101  140.5768  164.5920 C.ar    1  UNL1        0.0527
      3 C         142.9231  139.7463  165.3574 C.ar    1  UNL1        0.0510
      4 C         142.3643  138.4945  164.7484 C.ar    1  UNL1        0.0160
      5 C         142.7926  138.0733  163.3740 C.ar    1  UNL1        0.0190
      6 C         143.7797  138.9038  162.6085 C.ar    1  UNL1        0.0850
      7 N         142.4948  140.1676  166.7318 N.pl3   1  UNL1       -0.3057
      8 C         142.7504  139.1742  167.8263 C.3     1  UNL1        0.0926
      9 C         142.4418  139.2945  169.2893 C.3     1  UNL1        0.0429
     10 C         141.8015  140.4379  170.0191 C.3     1  UNL1        0.0952
     11 N         141.3116  141.7434  169.4662 N.am    1  UNL1       -0.2777
     12 C         140.7131  142.6894  170.4646 C.2     1  UNL1        0.2262
     13 C         140.1925  144.0228  170.0160 C.3     1  UNL1        0.0948
     14 O         140.6352  142.3022  171.9117 O.2     1  UNL1       -0.2749
     15 C         141.3410  142.2279  168.0470 C.3     1  UNL1        0.1148
     16 C         141.8675  141.5267  166.8300 C.3     1  UNL1        0.1123
     17 C         145.2799  142.4824  162.5470 C.3     1  UNL1        0.2525
     18 O         145.3255  140.9861  162.4520 O.3     1  UNL1       -0.4701
     19 N         144.2080  138.4825  161.2341 N.pl3   1  UNL1       -0.2802
     20 H         144.9570  137.8533  161.1231 H       1  UNL1        0.1552
     21 C         143.4952  139.0200  160.0286 C.ar    1  UNL1        0.2208
     22 N         143.4855  140.4955  159.7590 N.ar    1  UNL1       -0.2111
     23 C         142.7727  141.0329  158.5535 C.ar    1  UNL1        0.1147
     24 C         142.0696  140.0948  157.6178 C.ar    1  UNL1        0.0960
     25 CL        141.3568  140.6322  156.4124 Cl      1  UNL1       -0.0790
     26 C         142.0793  138.6192  157.8875 C.ar    1  UNL1        0.1138
     27 N         142.7921  138.0819  159.0929 N.ar    1  UNL1       -0.2111
     28 C         141.3761  137.6811  156.9517 C.ar    1  UNL1        0.1031
     29 C         139.9295  137.7458  156.5606 C.ar    1  UNL1        0.1196
     30 N         139.6555  136.6183  155.6100 N.ar    1  UNL1       -0.2248
     31 C         140.9329  135.8568  155.4136 C.ar    1  UNL1        0.1479
     32 C         141.2651  134.6502  154.5868 C.ar    1  UNL1        0.0374
     33 C         142.6606  134.1004  154.5893 C.ar    1  UNL1        0.0046
     34 C         143.7241  134.7573  155.4185 C.ar    1  UNL1        0.0191
     35 C         143.3919  135.9639  156.2453 C.ar    1  UNL1        0.0815
     36 N         141.9963  136.5137  156.2429 N.ar    1  UNL1       -0.2874
@<TRIPOS>BOND
     1    17    18    1
     2    18     1    1
     3     1     2   ar
     4     2     3   ar
     5     3     7    1
     6     7     8    1
     7     8     9    1
     8     9    10    1
     9    10    11    1
    10    11    12   am
    11    12    13    1
    12    12    14    2
    13    11    15    1
    14    15    16    1
    15     3     4   ar
    16     4     5   ar
    17     5     6   ar
    18     6    19    1
    19    19    21    1
    20    21    22   ar
    21    22    23   ar
    22    23    24   ar
    23    24    25    1
    24    24    26   ar
    25    26    28    1
    26    28    29   ar
    27    29    30   ar
    28    30    31   ar
    29    31    32   ar
    30    32    33   ar
    31    33    34   ar
    32    34    35   ar
    33    35    36   ar
    34    26    27   ar
    35     6     1   ar
    36    27    21   ar
    37    16     7    1
    38    36    28   ar
    39    36    31   ar
    40    19    20    1
@<TRIPOS>MOLECULE
*****
 36 40 0 0 0
SMALL
GASTEIGER

@<TRIPOS>ATOM
      1 C         141.5246  143.4740  162.3928 C.ar    1  UNL1        0.1533
      2 C         141.3325  142.6628  163.6399 C.ar    1  UNL1        0.0527
      3 C         140.2906  143.0631  164.6419 C.ar    1  UNL1        0.0510
      4 C         139.4407  144.2746  164.3970 C.ar    1  UNL1        0.0160
      5 C         139.6328  145.0857  163.1500 C.ar    1  UNL1        0.0190
      6 C         140.6747  144.6855  162.1478 C.ar    1  UNL1        0.0850
      7 N         140.0986  142.2518  165.8889 N.pl3   1  UNL1       -0.3057
      8 C         139.4009  140.9362  165.7085 C.3     1  UNL1        0.0926
      9 C         139.0620  139.9074  166.7461 C.3     1  UNL1        0.0429
     10 C         139.3371  139.9400  168.2203 C.3     1  UNL1        0.0952
     11 N         140.0189  141.0095  169.0210 N.am    1  UNL1       -0.2777
     12 C         140.1418  140.7427  170.4920 C.2     1  UNL1        0.2262
     13 C         140.8075  141.7486  171.3837 C.3     1  UNL1        0.0948
     14 O         139.5991  139.4700  171.0713 O.2     1  UNL1       -0.2749
     15 C         140.5942  142.3106  168.5454 C.3     1  UNL1        0.1148
     16 C         140.6296  142.8635  167.1514 C.3     1  UNL1        0.1123
     17 C         144.0200  143.2858  161.6947 C.3     1  UNL1        0.2525
     18 O         142.5665  143.0737  161.3907 O.3     1  UNL1       -0.4701
     19 N         140.8667  145.4968  160.9009 N.pl3   1  UNL1       -0.2802
     20 H         141.3445  146.3566  160.9417 H       1  UNL1        0.1552
     21 C         140.3307  144.9981  159.5917 C.ar    1  UNL1        0.2208
     22 N         139.5368  143.7264  159.5418 N.ar    1  UNL1       -0.2111
     23 C         139.0008  143.2277  158.2326 C.ar    1  UNL1        0.1147
     24 C         139.2588  144.0007  156.9733 C.ar    1  UNL1        0.0960
     25 CL        138.7228  143.5020  155.6641 Cl      1  UNL1       -0.0790
     26 C         140.0528  145.2724  157.0231 C.ar    1  UNL1        0.1138
     27 N         140.5887  145.7710  158.3323 N.ar    1  UNL1       -0.2111
     28 C         140.3108  146.0454  155.7638 C.ar    1  UNL1        0.1031
     29 C         141.1098  145.5711  154.5862 C.ar    1  UNL1        0.1196
     30 N         141.1079  146.6610  153.5556 N.ar    1  UNL1       -0.2248
     31 C         140.3076  147.8088  154.0962 C.ar    1  UNL1        0.1479
     32 C         139.9639  149.1512  153.5220 C.ar    1  UNL1        0.0374
     33 C         139.1275  150.1132  154.3126 C.ar    1  UNL1        0.0046
     34 C         138.6349  149.7327  155.6774 C.ar    1  UNL1        0.0191
     35 C         138.9786  148.3903  156.2515 C.ar    1  UNL1        0.0815
     36 N         139.8150  147.4283  155.4609 N.ar    1  UNL1       -0.2874
@<TRIPOS>BOND
     1    17    18    1
     2    18     1    1
     3     1     2   ar
     4     2     3   ar
     5     3     7    1
     6     7     8    1
     7     8     9    1
     8     9    10    1
     9    10    11    1
    10    11    12   am
    11    12    13    1
    12    12    14    2
    13    11    15    1
    14    15    16    1
    15     3     4   ar
    16     4     5   ar
    17     5     6   ar
    18     6    19    1
    19    19    21    1
    20    21    22   ar
    21    22    23   ar
    22    23    24   ar
    23    24    25    1
    24    24    26   ar
    25    26    28    1
    26    28    29   ar
    27    29    30   ar
    28    30    31   ar
    29    31    32   ar
    30    32    33   ar
    31    33    34   ar
    32    34    35   ar
    33    35    36   ar
    34    26    27   ar
    35     6     1   ar
    36    27    21   ar
    37    16     7    1
    38    36    28   ar
    39    36    31   ar
    40    19    20    1
@<TRIPOS>MOLECULE
*****
 36 40 0 0 0
SMALL
GASTEIGER

@<TRIPOS>ATOM
      1 C         141.6144  138.0277  163.1824 C.ar    1  UNL1        0.1533
      2 C         141.4180  138.5634  164.5697 C.ar    1  UNL1        0.0527
      3 C         142.5150  139.3393  165.2364 C.ar    1  UNL1        0.0510
      4 C         143.8085  139.5795  164.5158 C.ar    1  UNL1        0.0160
      5 C         144.0049  139.0438  163.1286 C.ar    1  UNL1        0.0190
      6 C         142.9079  138.2679  162.4618 C.ar    1  UNL1        0.0850
      7 N         142.3185  139.8750  166.6236 N.pl3   1  UNL1       -0.3057
      8 C         142.8228  139.0034  167.7354 C.3     1  UNL1        0.0926
      9 C         142.7768  139.2531  169.2137 C.3     1  UNL1        0.0429
     10 C         142.2151  140.4359  169.9454 C.3     1  UNL1        0.0952
     11 N         141.5607  141.6612  169.3795 N.am    1  UNL1       -0.2777
     12 C         141.0997  142.6756  170.3837 C.2     1  UNL1        0.2262
     13 C         140.4324  143.9376  169.9231 C.3     1  UNL1        0.0948
     14 O         141.3059  142.4280  171.8488 O.2     1  UNL1       -0.2749
     15 C         141.3064  142.0064  167.9421 C.3     1  UNL1        0.1148
     16 C         141.6436  141.2115  166.7155 C.3     1  UNL1        0.1123
     17 C         139.0852  137.6425  162.7302 C.3     1  UNL1        0.2525
     18 O         140.5174  137.2517  162.5157 O.3     1  UNL1       -0.4701
     19 N         143.1044  137.7322  161.0746 N.pl3   1  UNL1       -0.2802
     20 H         143.5235  136.8513  160.9419 H       1  UNL1        0.1552
     21 C         142.6625  138.5386  159.8896 C.ar    1  UNL1        0.2208
     22 N         141.2945  139.1536  159.8690 N.ar    1  UNL1       -0.2111
     23 C         140.8526  139.9600  158.6839 C.ar    1  UNL1        0.1147
     24 C         141.7786  140.1515  157.5195 C.ar    1  UNL1        0.0960
     25 CL        141.3366  140.9579  156.3345 Cl      1  UNL1       -0.0790
     26 C         143.1466  139.5364  157.5401 C.ar    1  UNL1        0.1138
     27 N         143.5885  138.7301  158.7252 N.ar    1  UNL1       -0.2111
     28 C         144.0726  139.7279  156.3757 C.ar    1  UNL1        0.1031
     29 C         144.0523  138.9467  155.0954 C.ar    1  UNL1        0.1196
     30 N         145.1487  139.4701  154.2156 N.ar    1  UNL1       -0.2248
     31 C         145.8465  140.5749  154.9522 C.ar    1  UNL1        0.1479
     32 C         147.0016  141.4563  154.5798 C.ar    1  UNL1        0.0374
     33 C         147.4917  142.4970  155.5424 C.ar    1  UNL1        0.0046
     34 C         146.8266  142.6563  156.8774 C.ar    1  UNL1        0.0191
     35 C         145.6715  141.7749  157.2499 C.ar    1  UNL1        0.0815
     36 N         145.1815  140.7341  156.2873 N.ar    1  UNL1       -0.2874
@<TRIPOS>BOND
     1    17    18    1
     2    18     1    1
     3     1     2   ar
     4     2     3   ar
     5     3     7    1
     6     7     8    1
     7     8     9    1
     8     9    10    1
     9    10    11    1
    10    11    12   am
    11    12    13    1
    12    12    14    2
    13    11    15    1
    14    15    16    1
    15     3     4   ar
    16     4     5   ar
    17     5     6   ar
    18     6    19    1
    19    19    21    1
    20    21    22   ar
    21    22    23   ar
    22    23    24   ar
    23    24    25    1
    24    24    26   ar
    25    26    28    1
    26    28    29   ar
    27    29    30   ar
    28    30    31   ar
    29    31    32   ar
    30    32    33   ar
    31    33    34   ar
    32    34    35   ar
    33    35    36   ar
    34    26    27   ar
    35     6     1   ar
    36    27    21   ar
    37    16     7    1
    38    36    28   ar
    39    36    31   ar
    40    19    20    1
@<TRIPOS>MOLECULE
*****
 36 40 0 0 0
SMALL
GASTEIGER

@<TRIPOS>ATOM
      1 C         141.6414  137.9402  163.1872 C.ar    1  UNL1        0.1533
      2 C         141.4221  138.4997  164.5617 C.ar    1  UNL1        0.0527
      3 C         142.5238  139.2486  165.2512 C.ar    1  UNL1        0.0510
      4 C         143.8448  139.4380  164.5663 C.ar    1  UNL1        0.0160
      5 C         144.0641  138.8785  163.1919 C.ar    1  UNL1        0.0190
      6 C         142.9624  138.1296  162.5024 C.ar    1  UNL1        0.0850
      7 N         142.3045  139.8080  166.6255 N.pl3   1  UNL1       -0.3057
      8 C         142.7889  138.9551  167.7604 C.3     1  UNL1        0.0926
      9 C         142.7182  139.2300  169.2333 C.3     1  UNL1        0.0429
     10 C         142.1456  140.4256  169.9351 C.3     1  UNL1        0.0952
     11 N         141.5023  141.6417  169.3373 N.am    1  UNL1       -0.2777
     12 C         141.0255  142.6734  170.3162 C.2     1  UNL1        0.2262
     13 C         140.3675  143.9280  169.8229 C.3     1  UNL1        0.0948
     14 O         141.2066  142.4507  171.7885 O.2     1  UNL1       -0.2749
     15 C         141.2727  141.9625  167.8902 C.3     1  UNL1        0.1148
     16 C         141.6297  141.1465  166.6833 C.3     1  UNL1        0.1123
     17 C         139.3517  137.9323  161.9595 C.3     1  UNL1        0.2525
     18 O         140.5396  137.1913  162.4978 O.3     1  UNL1       -0.4701
     19 N         143.1817  137.5702  161.1280 N.pl3   1  UNL1       -0.2802
     20 H         143.4387  136.6265  161.0160 H       1  UNL1        0.1552
     21 C         143.0096  138.4486  159.9244 C.ar    1  UNL1        0.2208
     22 N         144.0744  139.4408  159.5616 N.ar    1  UNL1       -0.2111
     23 C         143.9023  140.3192  158.3579 C.ar    1  UNL1        0.1147
     24 C         142.6653  140.2054  157.5171 C.ar    1  UNL1        0.0960
     25 CL        142.4932  141.0838  156.3134 Cl      1  UNL1       -0.0790
     26 C         141.6005  139.2131  157.8799 C.ar    1  UNL1        0.1138
     27 N         141.7726  138.3348  159.0835 N.ar    1  UNL1       -0.2111
     28 C         140.3635  139.0993  157.0390 C.ar    1  UNL1        0.1031
     29 C         139.0683  139.8184  157.2741 C.ar    1  UNL1        0.1196
     30 N         138.1090  139.4099  156.1958 N.ar    1  UNL1       -0.2248
     31 C         138.8113  138.4382  155.2943 C.ar    1  UNL1        0.1479
     32 C         138.3620  137.7034  154.0663 C.ar    1  UNL1        0.0374
     33 C         139.3060  136.7767  153.3594 C.ar    1  UNL1        0.0046
     34 C         140.6994  136.5847  153.8805 C.ar    1  UNL1        0.0191
     35 C         141.1487  137.3195  155.1086 C.ar    1  UNL1        0.0815
     36 N         140.2046  138.2462  155.8155 N.ar    1  UNL1       -0.2874
@<TRIPOS>BOND
     1    17    18    1
     2    18     1    1
     3     1     2   ar
     4     2     3   ar
     5     3     7    1
     6     7     8    1
     7     8     9    1
     8     9    10    1
     9    10    11    1
    10    11    12   am
    11    12    13    1
    12    12    14    2
    13    11    15    1
    14    15    16    1
    15     3     4   ar
    16     4     5   ar
    17     5     6   ar
    18     6    19    1
    19    19    21    1
    20    21    22   ar
    21    22    23   ar
    22    23    24   ar
    23    24    25    1
    24    24    26   ar
    25    26    28    1
    26    28    29   ar
    27    29    30   ar
    28    30    31   ar
    29    31    32   ar
    30    32    33   ar
    31    33    34   ar
    32    34    35   ar
    33    35    36   ar
    34    26    27   ar
    35     6     1   ar
    36    27    21   ar
    37    16     7    1
    38    36    28   ar
    39    36    31   ar
    40    19    20    1
@<TRIPOS>MOLECULE
*****
 36 40 0 0 0
SMALL
GASTEIGER

@<TRIPOS>ATOM
      1 C         144.4433  140.4913  163.1186 C.ar    1  UNL1        0.1533
      2 C         143.9848  140.8556  164.4996 C.ar    1  UNL1        0.0527
      3 C         143.0560  139.9446  165.2462 C.ar    1  UNL1        0.0510
      4 C         142.5857  138.6693  164.6119 C.ar    1  UNL1        0.0160
      5 C         143.0442  138.3050  163.2309 C.ar    1  UNL1        0.0190
      6 C         143.9730  139.2160  162.4842 C.ar    1  UNL1        0.0850
      7 N         142.5976  140.3090  166.6271 N.pl3   1  UNL1       -0.3057
      8 C         142.7840  139.2520  167.6750 C.3     1  UNL1        0.0926
      9 C         142.4322  139.3073  169.1321 C.3     1  UNL1        0.0429
     10 C         141.8071  140.4331  169.9012 C.3     1  UNL1        0.0952
     11 N         141.3793  141.7818  169.4032 N.am    1  UNL1       -0.2777
     12 C         140.7806  142.6954  170.4313 C.2     1  UNL1        0.2262
     13 C         140.3197  144.0676  170.0380 C.3     1  UNL1        0.0948
     14 O         140.6428  142.2368  171.8529 O.2     1  UNL1       -0.2749
     15 C         141.4710  142.3378  168.0132 C.3     1  UNL1        0.1148
     16 C         142.0132  141.6824  166.7776 C.3     1  UNL1        0.1123
     17 C         144.8626  142.6964  161.8102 C.3     1  UNL1        0.2525
     18 O         145.3722  141.4023  162.3720 O.3     1  UNL1       -0.4701
     19 N         144.4315  138.8516  161.1033 N.pl3   1  UNL1       -0.2802
     20 H         145.3247  138.4601  160.9685 H       1  UNL1        0.1552
     21 C         143.5291  139.0836  159.9278 C.ar    1  UNL1        0.2208
     22 N         142.5474  138.0270  159.5159 N.ar    1  UNL1       -0.2111
     23 C         141.6450  138.2591  158.3403 C.ar    1  UNL1        0.1147
     24 C         141.7244  139.5477  157.5767 C.ar    1  UNL1        0.0960
     25 CL        140.8221  139.7798  156.4012 Cl      1  UNL1       -0.0790
     26 C         142.7063  140.6044  157.9887 C.ar    1  UNL1        0.1138
     27 N         143.6086  140.3723  159.1642 N.ar    1  UNL1       -0.2111
     28 C         142.7857  141.8930  157.2251 C.ar    1  UNL1        0.1031
     29 C         143.6574  142.1597  156.0339 C.ar    1  UNL1        0.1196
     30 N         143.4178  143.5727  155.5913 N.ar    1  UNL1       -0.2248
     31 C         142.3980  144.1793  156.5089 C.ar    1  UNL1        0.1479
     32 C         141.7746  145.5429  156.5555 C.ar    1  UNL1        0.0374
     33 C         140.7606  145.8682  157.6118 C.ar    1  UNL1        0.0046
     34 C         140.3700  144.8301  158.6216 C.ar    1  UNL1        0.0191
     35 C         140.9933  143.4666  158.5750 C.ar    1  UNL1        0.0815
     36 N         142.0073  143.1412  157.5187 N.ar    1  UNL1       -0.2874
@<TRIPOS>BOND
     1    17    18    1
     2    18     1    1
     3     1     2   ar
     4     2     3   ar
     5     3     7    1
     6     7     8    1
     7     8     9    1
     8     9    10    1
     9    10    11    1
    10    11    12   am
    11    12    13    1
    12    12    14    2
    13    11    15    1
    14    15    16    1
    15     3     4   ar
    16     4     5   ar
    17     5     6   ar
    18     6    19    1
    19    19    21    1
    20    21    22   ar
    21    22    23   ar
    22    23    24   ar
    23    24    25    1
    24    24    26   ar
    25    26    28    1
    26    28    29   ar
    27    29    30   ar
    28    30    31   ar
    29    31    32   ar
    30    32    33   ar
    31    33    34   ar
    32    34    35   ar
    33    35    36   ar
    34    26    27   ar
    35     6     1   ar
    36    27    21   ar
    37    16     7    1
    38    36    28   ar
    39    36    31   ar
    40    19    20    1
