@<TRIPOS>MOLECULE
*****
 39 44 0 0 0
SMALL
GASTEIGER

@<TRIPOS>ATOM
      1 C         137.8131  142.9237  163.2060 C.3     1  UNL1        0.0932
      2 C         137.9748  142.6999  161.7316 C.3     1  UNL1        0.0286
      3 C         138.0058  141.3038  161.1839 C.3     1  UNL1        0.0193
      4 C         137.8750  140.1315  162.1105 C.3     1  UNL1        0.0700
      5 C         137.7133  140.3553  163.5849 C.3     1  UNL1        0.0193
      6 C         137.6823  141.7513  164.1327 C.3     1  UNL1        0.0286
      7 C         137.8524  140.8779  162.4572 C.3     1  UNL1        0.1562
      8 O         137.8244  142.1404  162.9526 O.3     1  UNL1       -0.3572
      9 N         137.9060  138.7354  161.5627 N.3     1  UNL1       -0.2926
     10 H         137.3266  138.7356  160.7233 H       1  UNL1        0.1236
     11 C         139.2145  138.1067  161.1855 C.3     1  UNL1        0.1152
     12 C         140.4112  138.2747  162.0741 C.ar    1  UNL1        0.0765
     13 C         140.5542  137.4323  163.3070 C.ar    1  UNL1        0.0193
     14 C         141.7509  137.6004  164.1956 C.ar    1  UNL1        0.0411
     15 C         142.8046  138.6108  163.8514 C.ar    1  UNL1        0.1708
     16 C         142.6617  139.4532  162.6186 C.ar    1  UNL1        0.1682
     17 N         141.4650  139.2852  161.7300 N.ar    1  UNL1       -0.2304
     18 N         143.7155  140.4638  162.2744 N.am    1  UNL1       -0.2639
     19 C         144.9122  140.6318  163.1630 C.2     1  UNL1        0.2718
     20 O         145.9660  141.6423  162.8188 O.2     1  UNL1       -0.2707
     21 C         145.0551  139.7893  164.3959 C.3     1  UNL1        0.2898
     22 O         144.0013  138.7789  164.7401 O.3     1  UNL1       -0.4628
     23 H         143.6217  141.0167  161.4652 H       1  UNL1        0.1565
     24 C         137.7821  144.3197  163.7537 C.3     1  UNL1        0.0319
     25 C         138.9008  144.8084  164.6253 C.3     1  UNL1        0.0304
     26 C         142.1630  141.5569  167.4599 C.ar    1  UNL1        0.1931
     27 C         142.9335  141.9548  166.2361 C.ar    1  UNL1        0.0623
     28 C         142.3105  142.8672  165.2214 C.ar    1  UNL1        0.1019
     29 N         143.0810  143.2652  163.9975 N.ar    1  UNL1       -0.2422
     30 C         142.4581  144.1776  162.9829 C.ar    1  UNL1        0.0986
     31 C         141.0647  144.6920  163.1921 C.ar    1  UNL1        0.0179
     32 C         140.2942  144.2940  164.4160 C.ar    1  UNL1       -0.0013
     33 C         140.9171  143.3817  165.4306 C.ar    1  UNL1        0.0982
     34 N         140.1466  142.9836  166.6546 N.ar    1  UNL1       -0.2079
     35 C         140.7696  142.0713  167.6692 C.ar    1  UNL1        0.2602
     36 C         143.2756  141.1975  169.7801 C.3     1  UNL1        0.2527
     37 O         142.7859  140.6444  168.4746 O.3     1  UNL1       -0.4667
     38 O         139.9991  141.6733  168.8932 O.3     1  UNL1       -0.4541
     39 C         139.4353  140.2879  169.0069 C.3     1  UNL1        0.2543
@<TRIPOS>BOND
     1    36    37    1
     2    37    26    1
     3    26    27   ar
     4    27    28   ar
     5    28    29   ar
     6    29    30   ar
     7    30    31   ar
     8    31    32   ar
     9    32    25    1
    10    25    24    1
    11    24     1    1
    12     1     2    1
    13     2     3    1
    14     3     4    1
    15     4     9    1
    16     9    11    1
    17    11    12    1
    18    12    13   ar
    19    13    14   ar
    20    14    15   ar
    21    15    16   ar
    22    16    17   ar
    23    16    18    1
    24    18    19   am
    25    19    20    2
    26    19    21    1
    27    21    22    1
    28     4     5    1
    29     5     6    1
    30     4     7    1
    31     7     8    1
    32    32    33   ar
    33    33    34   ar
    34    34    35   ar
    35    35    38    1
    36    38    39    1
    37    35    26   ar
    38    33    28   ar
    39     6     1    1
    40     8     1    1
    41    17    12   ar
    42    22    15    1
    43     9    10    1
    44    18    23    1
@<TRIPOS>MOLECULE
*****
 39 44 0 0 0
SMALL
GASTEIGER

@<TRIPOS>ATOM
      1 C         142.1661  137.9556  164.0917 C.3     1  UNL1        0.0932
      2 C         142.4575  138.2453  162.6491 C.3     1  UNL1        0.0286
      3 C         143.5994  139.1455  162.2806 C.3     1  UNL1        0.0193
      4 C         144.4498  139.7561  163.3548 C.3     1  UNL1        0.0700
      5 C         144.1584  139.4665  164.7975 C.3     1  UNL1        0.0193
      6 C         143.0166  138.5662  165.1659 C.3     1  UNL1        0.0286
      7 C         143.8351  139.2691  163.6056 C.3     1  UNL1        0.1562
      8 O         142.8025  138.4551  163.9387 O.3     1  UNL1       -0.3572
      9 N         145.5917  140.6563  162.9863 N.3     1  UNL1       -0.2926
     10 H         145.6336  140.6767  161.9674 H       1  UNL1        0.1236
     11 C         145.6012  142.0832  163.4488 C.3     1  UNL1        0.1152
     12 C         144.4062  142.9574  163.2087 C.ar    1  UNL1        0.0765
     13 C         143.7324  143.6398  164.3621 C.ar    1  UNL1        0.0193
     14 C         142.5373  144.5140  164.1220 C.ar    1  UNL1        0.0411
     15 C         142.0162  144.7059  162.7286 C.ar    1  UNL1        0.1708
     16 C         142.6900  144.0235  161.5753 C.ar    1  UNL1        0.1682
     17 N         143.8850  143.1492  161.8154 N.ar    1  UNL1       -0.2304
     18 N         142.1688  144.2153  160.1819 N.am    1  UNL1       -0.2639
     19 C         140.9738  145.0895  159.9418 C.2     1  UNL1        0.2718
     20 O         140.4526  145.2813  158.5484 O.2     1  UNL1       -0.2707
     21 C         140.2999  145.7719  161.0952 C.3     1  UNL1        0.2898
     22 O         140.8211  145.5801  162.4886 O.3     1  UNL1       -0.4628
     23 H         142.6111  143.7674  159.4249 H       1  UNL1        0.1565
     24 C         141.0242  137.0554  164.4601 C.3     1  UNL1        0.0319
     25 C         139.6785  137.6402  164.7715 C.3     1  UNL1        0.0304
     26 C         139.2171  143.0287  164.7835 C.ar    1  UNL1        0.1931
     27 C         138.5422  142.5562  163.5300 C.ar    1  UNL1        0.0623
     28 C         138.4889  141.0909  163.2136 C.ar    1  UNL1        0.1019
     29 N         137.8141  140.6184  161.9601 N.ar    1  UNL1       -0.2422
     30 C         137.7607  139.1531  161.6437 C.ar    1  UNL1        0.0986
     31 C         138.3822  138.1604  162.5809 C.ar    1  UNL1        0.0179
     32 C         139.0570  138.6329  163.8344 C.ar    1  UNL1       -0.0013
     33 C         139.1104  140.0982  164.1507 C.ar    1  UNL1        0.0982
     34 N         139.7852  140.5708  165.4043 N.ar    1  UNL1       -0.2079
     35 C         139.8385  142.0360  165.7206 C.ar    1  UNL1        0.2602
     36 C         138.1951  145.1201  165.9375 C.3     1  UNL1        0.2527
     37 O         139.2704  144.4941  165.0999 O.3     1  UNL1       -0.4667
     38 O         140.5134  142.5086  166.9742 O.3     1  UNL1       -0.4541
     39 C         141.9352  142.1201  167.2527 C.3     1  UNL1        0.2543
@<TRIPOS>BOND
     1    36    37    1
     2    37    26    1
     3    26    27   ar
     4    27    28   ar
     5    28    29   ar
     6    29    30   ar
     7    30    31   ar
     8    31    32   ar
     9    32    25    1
    10    25    24    1
    11    24     1    1
    12     1     2    1
    13     2     3    1
    14     3     4    1
    15     4     9    1
    16     9    11    1
    17    11    12    1
    18    12    13   ar
    19    13    14   ar
    20    14    15   ar
    21    15    16   ar
    22    16    17   ar
    23    16    18    1
    24    18    19   am
    25    19    20    2
    26    19    21    1
    27    21    22    1
    28     4     5    1
    29     5     6    1
    30     4     7    1
    31     7     8    1
    32    32    33   ar
    33    33    34   ar
    34    34    35   ar
    35    35    38    1
    36    38    39    1
    37    35    26   ar
    38    33    28   ar
    39     6     1    1
    40     8     1    1
    41    17    12   ar
    42    22    15    1
    43     9    10    1
    44    18    23    1
@<TRIPOS>MOLECULE
*****
 39 44 0 0 0
SMALL
GASTEIGER

@<TRIPOS>ATOM
      1 C         140.7072  144.9323  162.8226 C.3     1  UNL1        0.0932
      2 C         141.7768  145.0849  163.8631 C.3     1  UNL1        0.0286
      3 C         143.1796  144.6438  163.5670 C.3     1  UNL1        0.0193
      4 C         143.5128  144.0502  162.2304 C.3     1  UNL1        0.0700
      5 C         142.4432  143.8976  161.1898 C.3     1  UNL1        0.0193
      6 C         141.0404  144.3386  161.4859 C.3     1  UNL1        0.0286
      7 C         142.7300  144.2773  162.3464 C.3     1  UNL1        0.1562
      8 O         141.4615  144.6761  162.6142 O.3     1  UNL1       -0.3572
      9 N         144.9156  143.6092  161.9344 N.3     1  UNL1       -0.2926
     10 H         145.4876  143.8932  162.7297 H       1  UNL1        0.1236
     11 C         145.2093  142.1595  161.6854 C.3     1  UNL1        0.1152
     12 C         144.5423  141.1053  162.5185 C.ar    1  UNL1        0.0765
     13 C         145.2012  140.6123  163.7726 C.ar    1  UNL1        0.0193
     14 C         144.5342  139.5582  164.6056 C.ar    1  UNL1        0.0411
     15 C         143.2084  138.9970  164.1845 C.ar    1  UNL1        0.1708
     16 C         142.5495  139.4901  162.9304 C.ar    1  UNL1        0.1682
     17 N         143.2165  140.5442  162.0974 N.ar    1  UNL1       -0.2304
     18 N         141.2237  138.9290  162.5093 N.am    1  UNL1       -0.2639
     19 C         140.5567  137.8748  163.3423 C.2     1  UNL1        0.2718
     20 O         139.2309  137.3137  162.9213 O.2     1  UNL1       -0.2707
     21 C         141.2156  137.3818  164.5965 C.3     1  UNL1        0.2898
     22 O         142.5414  137.9429  165.0176 O.3     1  UNL1       -0.4628
     23 H         140.7912  139.2525  161.6862 H       1  UNL1        0.1565
     24 C         139.3044  145.3733  163.1187 C.3     1  UNL1        0.0319
     25 C         138.5158  144.6916  164.1972 C.3     1  UNL1        0.0304
     26 C         140.4042  140.7288  167.3564 C.ar    1  UNL1        0.1931
     27 C         139.5824  140.0591  166.2953 C.ar    1  UNL1        0.0623
     28 C         138.9048  140.8823  165.2402 C.ar    1  UNL1        0.1019
     29 N         138.0830  140.2125  164.1791 N.ar    1  UNL1       -0.2422
     30 C         137.4054  141.0358  163.1240 C.ar    1  UNL1        0.0986
     31 C         137.5497  142.5288  163.1301 C.ar    1  UNL1        0.0179
     32 C         138.3715  143.1986  164.1912 C.ar    1  UNL1       -0.0013
     33 C         139.0491  142.3753  165.2462 C.ar    1  UNL1        0.0982
     34 N         139.8709  143.0451  166.3074 N.ar    1  UNL1       -0.2079
     35 C         140.5485  142.2219  167.3624 C.ar    1  UNL1        0.2602
     36 C         142.5279  139.5368  168.2613 C.3     1  UNL1        0.2527
     37 O         141.0818  139.9056  168.4115 O.3     1  UNL1       -0.4667
     38 O         141.3703  142.8916  168.4236 O.3     1  UNL1       -0.4541
     39 C         140.7153  143.3851  169.6796 C.3     1  UNL1        0.2543
@<TRIPOS>BOND
     1    36    37    1
     2    37    26    1
     3    26    27   ar
     4    27    28   ar
     5    28    29   ar
     6    29    30   ar
     7    30    31   ar
     8    31    32   ar
     9    32    25    1
    10    25    24    1
    11    24     1    1
    12     1     2    1
    13     2     3    1
    14     3     4    1
    15     4     9    1
    16     9    11    1
    17    11    12    1
    18    12    13   ar
    19    13    14   ar
    20    14    15   ar
    21    15    16   ar
    22    16    17   ar
    23    16    18    1
    24    18    19   am
    25    19    20    2
    26    19    21    1
    27    21    22    1
    28     4     5    1
    29     5     6    1
    30     4     7    1
    31     7     8    1
    32    32    33   ar
    33    33    34   ar
    34    34    35   ar
    35    35    38    1
    36    38    39    1
    37    35    26   ar
    38    33    28   ar
    39     6     1    1
    40     8     1    1
    41    17    12   ar
    42    22    15    1
    43     9    10    1
    44    18    23    1
@<TRIPOS>MOLECULE
*****
 39 44 0 0 0
SMALL
GASTEIGER

@<TRIPOS>ATOM
      1 C         144.6054  140.2323  163.5095 C.3     1  UNL1        0.0932
      2 C         144.0906  140.1414  162.1036 C.3     1  UNL1        0.0286
      3 C         143.0077  139.1607  161.7634 C.3     1  UNL1        0.0193
      4 C         142.4396  138.2711  162.8291 C.3     1  UNL1        0.0700
      5 C         142.9544  138.3621  164.2351 C.3     1  UNL1        0.0193
      6 C         144.0373  139.3427  164.5753 C.3     1  UNL1        0.0286
      7 C         143.0318  138.7928  163.0635 C.3     1  UNL1        0.1562
      8 O         144.0111  139.6796  163.3712 O.3     1  UNL1       -0.3572
      9 N         141.3567  137.2905  162.4889 N.3     1  UNL1       -0.2926
     10 H         141.2259  136.6997  163.3100 H       1  UNL1        0.1236
     11 C         139.9975  137.7830  162.0889 C.3     1  UNL1        0.1152
     12 C         139.4080  138.9870  162.7618 C.ar    1  UNL1        0.0765
     13 C         138.7658  138.8531  164.1106 C.ar    1  UNL1        0.0193
     14 C         138.1763  140.0572  164.7835 C.ar    1  UNL1        0.0411
     15 C         138.2291  141.3951  164.1075 C.ar    1  UNL1        0.1708
     16 C         138.8713  141.5291  162.7586 C.ar    1  UNL1        0.1682
     17 N         139.4608  140.3250  162.0858 N.ar    1  UNL1       -0.2304
     18 N         138.9241  142.8671  162.0826 N.am    1  UNL1       -0.2639
     19 C         138.3346  144.0711  162.7554 C.2     1  UNL1        0.2718
     20 O         138.3874  145.4091  162.0794 O.2     1  UNL1       -0.2707
     21 C         137.6924  143.9372  164.1044 C.3     1  UNL1        0.2898
     22 O         137.6396  142.5992  164.7804 O.3     1  UNL1       -0.4628
     23 H         139.3457  142.9550  161.1972 H       1  UNL1        0.1565
     24 C         145.6883  141.2130  163.8497 C.3     1  UNL1        0.0319
     25 C         145.3388  142.5252  164.4867 C.3     1  UNL1        0.0304
     26 C         140.9905  141.9255  167.6462 C.ar    1  UNL1        0.1931
     27 C         140.5617  142.8078  166.5114 C.ar    1  UNL1        0.0623
     28 C         141.5416  143.1783  165.4378 C.ar    1  UNL1        0.1019
     29 N         141.1128  144.0606  164.3031 N.ar    1  UNL1       -0.2422
     30 C         142.0927  144.4311  163.2295 C.ar    1  UNL1        0.0986
     31 C         143.5013  143.9193  163.2907 C.ar    1  UNL1        0.0179
     32 C         143.9301  143.0370  164.4255 C.ar    1  UNL1       -0.0013
     33 C         142.9502  142.6665  165.4990 C.ar    1  UNL1        0.0982
     34 N         143.3790  141.7842  166.6338 N.ar    1  UNL1       -0.2079
     35 C         142.3991  141.4137  167.7074 C.ar    1  UNL1        0.2602
     36 C         139.3963  140.1866  168.7348 C.3     1  UNL1        0.2527
     37 O         140.0106  141.5550  168.7198 O.3     1  UNL1       -0.4667
     38 O         142.8279  140.5314  168.8422 O.3     1  UNL1       -0.4541
     39 C         143.0615  141.1192  170.2023 C.3     1  UNL1        0.2543
@<TRIPOS>BOND
     1    36    37    1
     2    37    26    1
     3    26    27   ar
     4    27    28   ar
     5    28    29   ar
     6    29    30   ar
     7    30    31   ar
     8    31    32   ar
     9    32    25    1
    10    25    24    1
    11    24     1    1
    12     1     2    1
    13     2     3    1
    14     3     4    1
    15     4     9    1
    16     9    11    1
    17    11    12    1
    18    12    13   ar
    19    13    14   ar
    20    14    15   ar
    21    15    16   ar
    22    16    17   ar
    23    16    18    1
    24    18    19   am
    25    19    20    2
    26    19    21    1
    27    21    22    1
    28     4     5    1
    29     5     6    1
    30     4     7    1
    31     7     8    1
    32    32    33   ar
    33    33    34   ar
    34    34    35   ar
    35    35    38    1
    36    38    39    1
    37    35    26   ar
    38    33    28   ar
    39     6     1    1
    40     8     1    1
    41    17    12   ar
    42    22    15    1
    43     9    10    1
    44    18    23    1
@<TRIPOS>MOLECULE
*****
 39 44 0 0 0
SMALL
GASTEIGER

@<TRIPOS>ATOM
      1 C         141.7329  138.0762  164.2363 C.3     1  UNL1        0.0932
      2 C         142.7579  138.3993  165.2827 C.3     1  UNL1        0.0286
      3 C         144.0119  139.1301  164.9038 C.3     1  UNL1        0.0193
      4 C         144.2408  139.5378  163.4785 C.3     1  UNL1        0.0700
      5 C         143.2157  139.2146  162.4321 C.3     1  UNL1        0.0193
      6 C         141.9618  138.4839  162.8110 C.3     1  UNL1        0.0286
      7 C         143.5383  139.1390  163.6381 C.3     1  UNL1        0.1562
      8 O         142.4044  138.4782  163.9807 O.3     1  UNL1       -0.3572
      9 N         145.4947  140.2685  163.0996 N.3     1  UNL1       -0.2926
     10 H         145.6121  140.1498  162.0933 H       1  UNL1        0.1236
     11 C         145.6210  141.7366  163.3800 C.3     1  UNL1        0.1152
     12 C         144.4197  142.6278  163.2675 C.ar    1  UNL1        0.0765
     13 C         143.7332  143.1212  164.5066 C.ar    1  UNL1        0.0193
     14 C         142.5319  144.0123  164.3941 C.ar    1  UNL1        0.0411
     15 C         142.0170  144.4100  163.0426 C.ar    1  UNL1        0.1708
     16 C         142.7034  143.9166  161.8035 C.ar    1  UNL1        0.1682
     17 N         143.9048  143.0255  161.9160 N.ar    1  UNL1       -0.2304
     18 N         142.1886  144.3144  160.4519 N.am    1  UNL1       -0.2639
     19 C         140.9872  145.2055  160.3395 C.2     1  UNL1        0.2718
     20 O         140.4723  145.6033  158.9880 O.2     1  UNL1       -0.2707
     21 C         140.3007  145.6989  161.5786 C.3     1  UNL1        0.2898
     22 O         140.8156  145.3012  162.9301 O.3     1  UNL1       -0.4628
     23 H         142.6391  143.9906  159.6387 H       1  UNL1        0.1565
     24 C         140.4789  137.3454  164.6153 C.3     1  UNL1        0.0319
     25 C         139.2385  138.1142  164.9621 C.3     1  UNL1        0.0304
     26 C         140.6300  142.0047  168.4519 C.ar    1  UNL1        0.1931
     27 C         140.1727  142.7062  167.2074 C.ar    1  UNL1        0.0623
     28 C         139.7105  141.9090  166.0238 C.ar    1  UNL1        0.1019
     29 N         139.2533  142.6105  164.7793 N.ar    1  UNL1       -0.2422
     30 C         138.7911  141.8133  163.5958 C.ar    1  UNL1        0.0986
     31 C         138.7862  140.3145  163.6567 C.ar    1  UNL1        0.0179
     32 C         139.2435  139.6130  164.9012 C.ar    1  UNL1       -0.0013
     33 C         139.7056  140.4102  166.0847 C.ar    1  UNL1        0.0982
     34 N         140.1629  139.7087  167.3293 N.ar    1  UNL1       -0.2079
     35 C         140.6251  140.5059  168.5128 C.ar    1  UNL1        0.2602
     36 C         140.4304  144.1069  169.9654 C.3     1  UNL1        0.2527
     37 O         141.0922  142.8019  169.6355 O.3     1  UNL1       -0.4667
     38 O         141.0823  139.8044  169.7574 O.3     1  UNL1       -0.4541
     39 C         142.5409  139.5242  169.9675 C.3     1  UNL1        0.2543
@<TRIPOS>BOND
     1    36    37    1
     2    37    26    1
     3    26    27   ar
     4    27    28   ar
     5    28    29   ar
     6    29    30   ar
     7    30    31   ar
     8    31    32   ar
     9    32    25    1
    10    25    24    1
    11    24     1    1
    12     1     2    1
    13     2     3    1
    14     3     4    1
    15     4     9    1
    16     9    11    1
    17    11    12    1
    18    12    13   ar
    19    13    14   ar
    20    14    15   ar
    21    15    16   ar
    22    16    17   ar
    23    16    18    1
    24    18    19   am
    25    19    20    2
    26    19    21    1
    27    21    22    1
    28     4     5    1
    29     5     6    1
    30     4     7    1
    31     7     8    1
    32    32    33   ar
    33    33    34   ar
    34    34    35   ar
    35    35    38    1
    36    38    39    1
    37    35    26   ar
    38    33    28   ar
    39     6     1    1
    40     8     1    1
    41    17    12   ar
    42    22    15    1
    43     9    10    1
    44    18    23    1
@<TRIPOS>MOLECULE
*****
 39 44 0 0 0
SMALL
GASTEIGER

@<TRIPOS>ATOM
      1 C         143.6127  138.8575  163.5785 C.3     1  UNL1        0.0932
      2 C         142.6865  138.3051  164.6211 C.3     1  UNL1        0.0286
      3 C         141.3613  137.7295  164.2179 C.3     1  UNL1        0.0193
      4 C         140.9624  137.7061  162.7721 C.3     1  UNL1        0.0700
      5 C         141.8887  138.2585  161.7295 C.3     1  UNL1        0.0193
      6 C         143.2138  138.8342  162.1327 C.3     1  UNL1        0.0286
      7 C         141.6987  138.0318  162.9446 C.3     1  UNL1        0.1562
      8 O         142.8970  138.5524  163.3093 O.3     1  UNL1       -0.3572
      9 N         139.6373  137.1304  162.3689 N.3     1  UNL1       -0.2926
     10 H         139.5784  136.2035  162.7906 H       1  UNL1        0.1236
     11 C         138.3688  137.8485  162.7226 C.3     1  UNL1        0.1152
     12 C         138.2648  139.3312  162.5205 C.ar    1  UNL1        0.0765
     13 C         138.1019  139.8901  161.1381 C.ar    1  UNL1        0.0193
     14 C         137.9980  141.3727  160.9360 C.ar    1  UNL1        0.0411
     15 C         138.0570  142.2965  162.1162 C.ar    1  UNL1        0.1708
     16 C         138.2199  141.7376  163.4986 C.ar    1  UNL1        0.1682
     17 N         138.3238  140.2549  163.7007 N.ar    1  UNL1       -0.2304
     18 N         138.2789  142.6614  164.6790 N.am    1  UNL1       -0.2639
     19 C         138.1750  144.1441  164.4769 C.2     1  UNL1        0.2718
     20 O         138.2339  145.0679  165.6572 O.2     1  UNL1       -0.2707
     21 C         138.0121  144.7030  163.0944 C.3     1  UNL1        0.2898
     22 O         137.9531  143.7792  161.9141 O.3     1  UNL1       -0.4628
     23 H         138.3858  142.2946  165.5863 H       1  UNL1        0.1565
     24 C         144.9379  139.4332  163.9817 C.3     1  UNL1        0.0319
     25 C         145.0945  140.9166  164.1390 C.3     1  UNL1        0.0304
     26 C         142.0285  144.3058  161.2470 C.ar    1  UNL1        0.1931
     27 C         141.4587  144.3104  162.6345 C.ar    1  UNL1        0.0623
     28 C         142.0827  143.4643  163.7045 C.ar    1  UNL1        0.1019
     29 N         141.5129  143.4689  165.0920 N.ar    1  UNL1       -0.2422
     30 C         142.1369  142.6228  166.1618 C.ar    1  UNL1        0.0986
     31 C         143.3308  141.7720  165.8442 C.ar    1  UNL1        0.0179
     32 C         143.9006  141.7674  164.4567 C.ar    1  UNL1       -0.0013
     33 C         143.2766  142.6135  163.3868 C.ar    1  UNL1        0.0982
     34 N         143.8464  142.6089  161.9992 N.ar    1  UNL1       -0.2079
     35 C         143.2224  143.4550  160.9294 C.ar    1  UNL1        0.2602
     36 C         140.2357  144.6304  159.3949 C.3     1  UNL1        0.2527
     37 O         141.4045  145.1519  160.1771 O.3     1  UNL1       -0.4667
     38 O         143.7922  143.4504  159.5418 O.3     1  UNL1       -0.4541
     39 C         144.6736  142.3212  159.0967 C.3     1  UNL1        0.2543
@<TRIPOS>BOND
     1    36    37    1
     2    37    26    1
     3    26    27   ar
     4    27    28   ar
     5    28    29   ar
     6    29    30   ar
     7    30    31   ar
     8    31    32   ar
     9    32    25    1
    10    25    24    1
    11    24     1    1
    12     1     2    1
    13     2     3    1
    14     3     4    1
    15     4     9    1
    16     9    11    1
    17    11    12    1
    18    12    13   ar
    19    13    14   ar
    20    14    15   ar
    21    15    16   ar
    22    16    17   ar
    23    16    18    1
    24    18    19   am
    25    19    20    2
    26    19    21    1
    27    21    22    1
    28     4     5    1
    29     5     6    1
    30     4     7    1
    31     7     8    1
    32    32    33   ar
    33    33    34   ar
    34    34    35   ar
    35    35    38    1
    36    38    39    1
    37    35    26   ar
    38    33    28   ar
    39     6     1    1
    40     8     1    1
    41    17    12   ar
    42    22    15    1
    43     9    10    1
    44    18    23    1
@<TRIPOS>MOLECULE
*****
 39 44 0 0 0
SMALL
GASTEIGER

@<TRIPOS>ATOM
      1 C         144.4438  142.8543  163.1493 C.3     1  UNL1        0.0932
      2 C         143.7663  142.9971  161.8187 C.3     1  UNL1        0.0286
      3 C         142.6535  143.9880  161.6462 C.3     1  UNL1        0.0193
      4 C         142.2183  144.8361  162.8042 C.3     1  UNL1        0.0700
      5 C         142.8958  144.6934  164.1349 C.3     1  UNL1        0.0193
      6 C         144.0086  143.7025  164.3074 C.3     1  UNL1        0.0286
      7 C         142.8326  144.3070  162.9471 C.3     1  UNL1        0.1562
      8 O         143.8389  143.4109  163.1031 O.3     1  UNL1       -0.3572
      9 N         141.1055  145.8271  162.6317 N.3     1  UNL1       -0.2926
     10 H         141.0524  146.0398  161.6356 H       1  UNL1        0.1236
     11 C         139.7154  145.4785  163.0747 C.3     1  UNL1        0.1152
     12 C         139.1397  144.1324  162.7485 C.ar    1  UNL1        0.0765
     13 C         138.6219  143.2520  163.8470 C.ar    1  UNL1        0.0193
     14 C         138.0462  141.9058  163.5208 C.ar    1  UNL1        0.0411
     15 C         137.9883  141.4400  162.0962 C.ar    1  UNL1        0.1708
     16 C         138.5061  142.3204  160.9977 C.ar    1  UNL1        0.1682
     17 N         139.0819  143.6666  161.3239 N.ar    1  UNL1       -0.2304
     18 N         138.4483  141.8547  159.5730 N.am    1  UNL1       -0.2639
     19 C         137.8726  140.5085  159.2468 C.2     1  UNL1        0.2718
     20 O         137.8147  140.0428  157.8221 O.2     1  UNL1       -0.2707
     21 C         137.3547  139.6281  160.3453 C.3     1  UNL1        0.2898
     22 O         137.4126  140.0939  161.7700 O.3     1  UNL1       -0.4628
     23 H         138.7882  142.4325  158.8520 H       1  UNL1        0.1565
     24 C         145.5566  141.8634  163.3218 C.3     1  UNL1        0.0319
     25 C         145.3021  140.5654  164.0292 C.3     1  UNL1        0.0304
     26 C         140.5019  139.6040  166.3278 C.ar    1  UNL1        0.1931
     27 C         140.5231  138.8044  165.0589 C.ar    1  UNL1        0.0623
     28 C         141.7285  138.8448  164.1670 C.ar    1  UNL1        0.1019
     29 N         141.7497  138.0453  162.8981 N.ar    1  UNL1       -0.2422
     30 C         142.9551  138.0857  162.0062 C.ar    1  UNL1        0.0986
     31 C         144.1392  138.9258  162.3832 C.ar    1  UNL1        0.0179
     32 C         144.1180  139.7254  163.6521 C.ar    1  UNL1       -0.0013
     33 C         142.9126  139.6849  164.5440 C.ar    1  UNL1        0.0982
     34 N         142.8914  140.4845  165.8130 N.ar    1  UNL1       -0.2079
     35 C         141.6860  140.4441  166.7048 C.ar    1  UNL1        0.2602
     36 C         138.0665  138.8232  166.7852 C.3     1  UNL1        0.2527
     37 O         139.2965  139.5636  167.2197 O.3     1  UNL1       -0.4667
     38 O         141.6648  141.2437  167.9738 O.3     1  UNL1       -0.4541
     39 C         142.7595  142.2290  168.2578 C.3     1  UNL1        0.2543
@<TRIPOS>BOND
     1    36    37    1
     2    37    26    1
     3    26    27   ar
     4    27    28   ar
     5    28    29   ar
     6    29    30   ar
     7    30    31   ar
     8    31    32   ar
     9    32    25    1
    10    25    24    1
    11    24     1    1
    12     1     2    1
    13     2     3    1
    14     3     4    1
    15     4     9    1
    16     9    11    1
    17    11    12    1
    18    12    13   ar
    19    13    14   ar
    20    14    15   ar
    21    15    16   ar
    22    16    17   ar
    23    16    18    1
    24    18    19   am
    25    19    20    2
    26    19    21    1
    27    21    22    1
    28     4     5    1
    29     5     6    1
    30     4     7    1
    31     7     8    1
    32    32    33   ar
    33    33    34   ar
    34    34    35   ar
    35    35    38    1
    36    38    39    1
    37    35    26   ar
    38    33    28   ar
    39     6     1    1
    40     8     1    1
    41    17    12   ar
    42    22    15    1
    43     9    10    1
    44    18    23    1
@<TRIPOS>MOLECULE
*****
 39 44 0 0 0
SMALL
GASTEIGER

@<TRIPOS>ATOM
      1 C         142.6287  138.3294  163.9975 C.3     1  UNL1        0.0932
      2 C         141.3793  137.9392  164.7299 C.3     1  UNL1        0.0286
      3 C         140.1227  137.6448  163.9655 C.3     1  UNL1        0.0193
      4 C         140.1156  137.7405  162.4686 C.3     1  UNL1        0.0700
      5 C         141.3651  138.1308  161.7361 C.3     1  UNL1        0.0193
      6 C         142.6217  138.4252  162.5005 C.3     1  UNL1        0.0286
      7 C         140.8282  137.9113  162.8441 C.3     1  UNL1        0.1562
      8 O         141.9644  138.1776  163.5353 O.3     1  UNL1       -0.3572
      9 N         138.8590  137.4461  161.7042 N.3     1  UNL1       -0.2926
     10 H         138.5142  136.5467  162.0397 H       1  UNL1        0.1236
     11 C         137.7043  138.4016  161.7626 C.3     1  UNL1        0.1152
     12 C         137.9543  139.8806  161.7705 C.ar    1  UNL1        0.0765
     13 C         138.2664  140.5954  160.4893 C.ar    1  UNL1        0.0193
     14 C         138.5164  142.0744  160.4973 C.ar    1  UNL1        0.0411
     15 C         138.4544  142.8386  161.7865 C.ar    1  UNL1        0.1708
     16 C         138.1423  142.1238  163.0677 C.ar    1  UNL1        0.1682
     17 N         137.8923  140.6448  163.0597 N.ar    1  UNL1       -0.2304
     18 N         138.0802  142.8880  164.3570 N.am    1  UNL1       -0.2639
     19 C         138.3302  144.3670  164.3650 C.2     1  UNL1        0.2718
     20 O         138.2681  145.1312  165.6542 O.2     1  UNL1       -0.2707
     21 C         138.6423  145.0818  163.0836 C.3     1  UNL1        0.2898
     22 O         138.7044  144.3176  161.7944 O.3     1  UNL1       -0.4628
     23 H         137.8754  142.4189  165.1979 H       1  UNL1        0.1565
     24 C         143.8853  138.6239  164.7619 C.3     1  UNL1        0.0319
     25 C         144.3075  140.0447  164.9922 C.3     1  UNL1        0.0304
     26 C         140.4926  141.7202  168.4402 C.ar    1  UNL1        0.1931
     27 C         140.4049  142.6282  167.2495 C.ar    1  UNL1        0.0623
     28 C         141.3368  142.4363  166.0897 C.ar    1  UNL1        0.1019
     29 N         141.2491  143.3443  164.8990 N.ar    1  UNL1       -0.2422
     30 C         142.1809  143.1524  163.7394 C.ar    1  UNL1        0.0986
     31 C         143.2004  142.0525  163.7704 C.ar    1  UNL1        0.0179
     32 C         143.2881  141.1445  164.9612 C.ar    1  UNL1       -0.0013
     33 C         142.3563  141.3364  166.1208 C.ar    1  UNL1        0.0982
     34 N         142.4439  140.4284  167.3116 N.ar    1  UNL1       -0.2079
     35 C         141.5121  140.6203  168.4713 C.ar    1  UNL1        0.2602
     36 C         139.9352  142.8400  170.7174 C.3     1  UNL1        0.2527
     37 O         139.5607  141.9121  169.6000 O.3     1  UNL1       -0.4667
     38 O         141.5997  139.7123  169.6621 O.3     1  UNL1       -0.4541
     39 C         142.7061  138.7039  169.7565 C.3     1  UNL1        0.2543
@<TRIPOS>BOND
     1    36    37    1
     2    37    26    1
     3    26    27   ar
     4    27    28   ar
     5    28    29   ar
     6    29    30   ar
     7    30    31   ar
     8    31    32   ar
     9    32    25    1
    10    25    24    1
    11    24     1    1
    12     1     2    1
    13     2     3    1
    14     3     4    1
    15     4     9    1
    16     9    11    1
    17    11    12    1
    18    12    13   ar
    19    13    14   ar
    20    14    15   ar
    21    15    16   ar
    22    16    17   ar
    23    16    18    1
    24    18    19   am
    25    19    20    2
    26    19    21    1
    27    21    22    1
    28     4     5    1
    29     5     6    1
    30     4     7    1
    31     7     8    1
    32    32    33   ar
    33    33    34   ar
    34    34    35   ar
    35    35    38    1
    36    38    39    1
    37    35    26   ar
    38    33    28   ar
    39     6     1    1
    40     8     1    1
    41    17    12   ar
    42    22    15    1
    43     9    10    1
    44    18    23    1
@<TRIPOS>MOLECULE
*****
 39 44 0 0 0
SMALL
GASTEIGER

@<TRIPOS>ATOM
      1 C         141.9932  138.0459  163.7871 C.3     1  UNL1        0.0932
      2 C         142.8160  138.5667  164.9279 C.3     1  UNL1        0.0286
      3 C         144.0057  139.4393  164.6576 C.3     1  UNL1        0.0193
      4 C         144.3727  139.7910  163.2464 C.3     1  UNL1        0.0700
      5 C         143.5498  139.2701  162.1054 C.3     1  UNL1        0.0193
      6 C         142.3601  138.3976  162.3758 C.3     1  UNL1        0.0286
      7 C         143.7120  139.3097  163.3449 C.3     1  UNL1        0.1562
      8 O         142.6361  138.5206  163.5894 O.3     1  UNL1       -0.3572
      9 N         145.5624  140.6636  162.9760 N.3     1  UNL1       -0.2926
     10 H         145.7378  140.6197  161.9722 H       1  UNL1        0.1236
     11 C         145.5263  142.1168  163.3460 C.3     1  UNL1        0.1152
     12 C         144.2492  142.8926  163.2150 C.ar    1  UNL1        0.0765
     13 C         143.4392  143.2156  164.4354 C.ar    1  UNL1        0.0193
     14 C         142.1621  143.9914  164.3044 C.ar    1  UNL1        0.0411
     15 C         141.6950  144.4442  162.9528 C.ar    1  UNL1        0.1708
     16 C         142.5050  144.1212  161.7324 C.ar    1  UNL1        0.1682
     17 N         143.7821  143.3454  161.8634 N.ar    1  UNL1       -0.2304
     18 N         142.0378  144.5740  160.3807 N.am    1  UNL1       -0.2639
     19 C         140.7607  145.3498  160.2497 C.2     1  UNL1        0.2718
     20 O         140.2936  145.8026  158.8981 O.2     1  UNL1       -0.2707
     21 C         139.9508  145.6728  161.4703 C.3     1  UNL1        0.2898
     22 O         140.4179  145.2200  162.8218 O.3     1  UNL1       -0.4628
     23 H         142.5694  144.3620  159.5797 H       1  UNL1        0.1565
     24 C         140.8034  137.1733  164.0574 C.3     1  UNL1        0.0319
     25 C         139.4260  137.7669  164.0730 C.3     1  UNL1        0.0304
     26 C         138.4445  141.5745  160.3596 C.ar    1  UNL1        0.1931
     27 C         138.5390  142.2902  161.6744 C.ar    1  UNL1        0.0623
     28 C         138.8080  141.5172  162.9315 C.ar    1  UNL1        0.1019
     29 N         138.9024  142.2330  164.2463 N.ar    1  UNL1       -0.2422
     30 C         139.1714  141.4600  165.5033 C.ar    1  UNL1        0.0986
     31 C         139.3459  139.9713  165.4455 C.ar    1  UNL1        0.0179
     32 C         139.2515  139.2556  164.1307 C.ar    1  UNL1       -0.0013
     33 C         138.9825  140.0285  162.8737 C.ar    1  UNL1        0.0982
     34 N         138.8880  139.3128  161.5588 N.ar    1  UNL1       -0.2079
     35 C         138.6191  140.0858  160.3018 C.ar    1  UNL1        0.2602
     36 C         139.2854  142.6008  158.1258 C.3     1  UNL1        0.2527
     37 O         138.1755  142.3474  159.1025 O.3     1  UNL1       -0.4667
     38 O         138.5246  139.3700  158.9869 O.3     1  UNL1       -0.4541
     39 C         139.7690  138.8751  158.3113 C.3     1  UNL1        0.2543
@<TRIPOS>BOND
     1    36    37    1
     2    37    26    1
     3    26    27   ar
     4    27    28   ar
     5    28    29   ar
     6    29    30   ar
     7    30    31   ar
     8    31    32   ar
     9    32    25    1
    10    25    24    1
    11    24     1    1
    12     1     2    1
    13     2     3    1
    14     3     4    1
    15     4     9    1
    16     9    11    1
    17    11    12    1
    18    12    13   ar
    19    13    14   ar
    20    14    15   ar
    21    15    16   ar
    22    16    17   ar
    23    16    18    1
    24    18    19   am
    25    19    20    2
    26    19    21    1
    27    21    22    1
    28     4     5    1
    29     5     6    1
    30     4     7    1
    31     7     8    1
    32    32    33   ar
    33    33    34   ar
    34    34    35   ar
    35    35    38    1
    36    38    39    1
    37    35    26   ar
    38    33    28   ar
    39     6     1    1
    40     8     1    1
    41    17    12   ar
    42    22    15    1
    43     9    10    1
    44    18    23    1
