@<TRIPOS>MOLECULE
*****
 23 25 0 0 0
SMALL
GASTEIGER

@<TRIPOS>ATOM
      1 N         141.3409  141.9614  166.0660 N.pl3   1  UNL1       -0.2759
      2 C         141.6351  142.3460  167.4857 C.ar    1  UNL1        0.0551
      3 C         142.9993  142.1047  168.0608 C.ar    1  UNL1        0.0150
      4 C         143.2935  142.4894  169.4805 C.ar    1  UNL1        0.0044
      5 C         142.2235  143.1153  170.3251 C.ar    1  UNL1        0.0367
      6 C         140.8593  143.3566  169.7499 C.ar    1  UNL1        0.1349
      7 O         139.7892  143.9826  170.5945 O.3     1  UNL1       -0.5055
      8 C         140.5651  142.9720  168.3303 C.ar    1  UNL1        0.0514
      9 H         139.9730  144.2228  171.4814 H       1  UNL1        0.2922
     10 C         139.8465  146.1749  162.0644 C.3     1  UNL1        0.0310
     11 C         140.2201  145.1215  163.0648 C.ar    1  UNL1       -0.0218
     12 C         141.6649  144.8376  163.3508 C.ar    1  UNL1       -0.0030
     13 C         142.0385  143.7843  164.3512 C.ar    1  UNL1        0.0145
     14 C         140.9673  143.0148  165.0656 C.ar    1  UNL1        0.0520
     15 C         139.5225  143.2987  164.7796 C.ar    1  UNL1        0.0145
     16 C         139.1489  144.3521  163.7792 C.ar    1  UNL1       -0.0030
     17 C         141.4204  140.5234  165.6467 C.3     1  UNL1        0.2131
     18 C         140.2197  139.6348  165.7836 C.2     1  UNL1        0.3125
     19 N         139.9733  138.3629  165.0277 N.2     1  UNL1       -0.0634
     20 C         138.6559  137.8041  165.4773 C.3     1  UNL1        0.3130
     21 C         138.0880  138.7308  166.5111 C.3     1  UNL1        0.2575
     22 N         139.0544  139.8622  166.7005 N.pl3   1  UNL1       -0.2175
     23 H         138.9434  140.6209  167.3181 H       1  UNL1        0.2921
@<TRIPOS>BOND
     1    10    11    1
     2    11    12   ar
     3    12    13   ar
     4    13    14   ar
     5    14     1    1
     6     1    17    1
     7    17    18    1
     8    18    19    2
     9    19    20    1
    10    20    21    1
    11    21    22    1
    12     1     2    1
    13     2     3   ar
    14     3     4   ar
    15     4     5   ar
    16     5     6   ar
    17     6     7    1
    18     6     8   ar
    19    14    15   ar
    20    15    16   ar
    21    16    11   ar
    22    22    18    1
    23     8     2   ar
    24    22    23    1
    25     7     9    1
@<TRIPOS>MOLECULE
*****
 23 25 0 0 0
SMALL
GASTEIGER

@<TRIPOS>ATOM
      1 N         141.3440  141.9893  166.1440 N.pl3   1  UNL1       -0.2759
      2 C         141.5931  142.3860  167.5689 C.ar    1  UNL1        0.0551
      3 C         140.4887  142.9927  168.3826 C.ar    1  UNL1        0.0150
      4 C         140.7379  143.3894  169.8077 C.ar    1  UNL1        0.0044
      5 C         142.0915  143.1793  170.4189 C.ar    1  UNL1        0.0367
      6 C         143.1959  142.5726  169.6052 C.ar    1  UNL1        0.1349
      7 O         144.5496  142.3625  170.2165 O.3     1  UNL1       -0.5055
      8 C         142.9468  142.1759  168.1802 C.ar    1  UNL1        0.0514
      9 H         144.7052  142.6103  171.1066 H       1  UNL1        0.2922
     10 C         139.9572  146.1661  162.0658 C.3     1  UNL1        0.0310
     11 C         140.3039  145.1219  163.0853 C.ar    1  UNL1       -0.0218
     12 C         139.2137  144.4060  163.8263 C.ar    1  UNL1       -0.0030
     13 C         139.5604  143.3618  164.8458 C.ar    1  UNL1        0.0145
     14 C         140.9973  143.0335  165.1244 C.ar    1  UNL1        0.0520
     15 C         142.0874  143.7494  164.3835 C.ar    1  UNL1        0.0145
     16 C         141.7407  144.7936  163.3639 C.ar    1  UNL1       -0.0030
     17 C         141.4415  140.5485  165.7385 C.3     1  UNL1        0.2131
     18 C         140.2347  139.6618  165.8245 C.2     1  UNL1        0.3125
     19 N         139.0221  139.9030  166.6739 N.2     1  UNL1       -0.0634
     20 C         138.0665  138.7685  166.4506 C.3     1  UNL1        0.3130
     21 C         138.6885  137.8262  165.4631 C.3     1  UNL1        0.2575
     22 N         140.0285  138.3783  165.0761 N.pl3   1  UNL1       -0.2175
     23 H         140.6615  137.9699  164.4422 H       1  UNL1        0.2921
@<TRIPOS>BOND
     1    10    11    1
     2    11    12   ar
     3    12    13   ar
     4    13    14   ar
     5    14     1    1
     6     1    17    1
     7    17    18    1
     8    18    19    2
     9    19    20    1
    10    20    21    1
    11    21    22    1
    12     1     2    1
    13     2     3   ar
    14     3     4   ar
    15     4     5   ar
    16     5     6   ar
    17     6     7    1
    18     6     8   ar
    19    14    15   ar
    20    15    16   ar
    21    16    11   ar
    22    22    18    1
    23     8     2   ar
    24    22    23    1
    25     7     9    1
@<TRIPOS>MOLECULE
*****
 23 25 0 0 0
SMALL
GASTEIGER

@<TRIPOS>ATOM
      1 N         140.9895  139.6925  166.4499 N.pl3   1  UNL1       -0.2759
      2 C         140.8192  139.9161  167.9233 C.ar    1  UNL1        0.0551
      3 C         139.4671  140.2507  168.4798 C.ar    1  UNL1        0.0150
      4 C         139.2968  140.4743  169.9533 C.ar    1  UNL1        0.0044
      5 C         140.4787  140.3631  170.8702 C.ar    1  UNL1        0.0367
      6 C         141.8308  140.0285  170.3137 C.ar    1  UNL1        0.1349
      7 O         143.0127  139.9173  171.2307 O.3     1  UNL1       -0.5055
      8 C         142.0011  139.8049  168.8403 C.ar    1  UNL1        0.0514
      9 H         142.9064  140.0570  172.1511 H       1  UNL1        0.2922
     10 C         145.9277  141.6610  163.6678 C.3     1  UNL1        0.0310
     11 C         144.6931  141.1689  164.3633 C.ar    1  UNL1       -0.0218
     12 C         144.4432  139.6957  164.4948 C.ar    1  UNL1       -0.0030
     13 C         143.2086  139.2036  165.1904 C.ar    1  UNL1        0.0145
     14 C         142.2241  140.1846  165.7544 C.ar    1  UNL1        0.0520
     15 C         142.4740  141.6578  165.6228 C.ar    1  UNL1        0.0145
     16 C         143.7085  142.1499  164.9273 C.ar    1  UNL1       -0.0030
     17 C         139.9253  138.9769  165.6720 C.3     1  UNL1        0.2131
     18 C         139.0686  139.7341  164.7011 C.2     1  UNL1        0.3125
     19 N         138.5709  139.2249  163.3809 N.2     1  UNL1       -0.0634
     20 C         137.7539  140.3097  162.7438 C.3     1  UNL1        0.3130
     21 C         137.7467  141.4893  163.6703 C.3     1  UNL1        0.2575
     22 N         138.5592  141.1337  164.8800 N.pl3   1  UNL1       -0.2175
     23 H         138.7285  141.7165  165.6552 H       1  UNL1        0.2921
@<TRIPOS>BOND
     1    10    11    1
     2    11    12   ar
     3    12    13   ar
     4    13    14   ar
     5    14     1    1
     6     1    17    1
     7    17    18    1
     8    18    19    2
     9    19    20    1
    10    20    21    1
    11    21    22    1
    12     1     2    1
    13     2     3   ar
    14     3     4   ar
    15     4     5   ar
    16     5     6   ar
    17     6     7    1
    18     6     8   ar
    19    14    15   ar
    20    15    16   ar
    21    16    11   ar
    22    22    18    1
    23     8     2   ar
    24    22    23    1
    25     7     9    1
@<TRIPOS>MOLECULE
*****
 23 25 0 0 0
SMALL
GASTEIGER

@<TRIPOS>ATOM
      1 N         140.4700  141.3498  166.4071 N.pl3   1  UNL1       -0.2759
      2 C         140.3553  141.6001  167.8816 C.ar    1  UNL1        0.0551
      3 C         140.4739  142.9964  168.4167 C.ar    1  UNL1        0.0150
      4 C         140.3592  143.2468  169.8912 C.ar    1  UNL1        0.0044
      5 C         140.1259  142.1009  170.8306 C.ar    1  UNL1        0.0367
      6 C         140.0074  140.7046  170.2955 C.ar    1  UNL1        0.1349
      7 O         139.7741  139.5587  171.2350 O.3     1  UNL1       -0.5055
      8 C         140.1221  140.4542  168.8210 C.ar    1  UNL1        0.0514
      9 H         139.7024  139.7151  172.1560 H       1  UNL1        0.2922
     10 C         145.8344  141.5959  163.7307 C.3     1  UNL1        0.0310
     11 C         144.4933  141.5343  164.3998 C.ar    1  UNL1       -0.0218
     12 C         143.9135  140.2093  164.7972 C.ar    1  UNL1       -0.0030
     13 C         142.5724  140.1477  165.4663 C.ar    1  UNL1        0.0145
     14 C         141.8111  141.4113  165.7380 C.ar    1  UNL1        0.0520
     15 C         142.3909  142.7363  165.3406 C.ar    1  UNL1        0.0145
     16 C         143.7320  142.7979  164.6715 C.ar    1  UNL1       -0.0030
     17 C         139.2437  141.0378  165.6018 C.3     1  UNL1        0.2131
     18 C         138.7154  142.0418  164.6204 C.2     1  UNL1        0.3125
     19 N         138.5307  143.5088  164.8729 N.2     1  UNL1       -0.0634
     20 C         137.9803  144.1287  163.6228 C.3     1  UNL1        0.3130
     21 C         137.8249  143.0448  162.5976 C.3     1  UNL1        0.2575
     22 N         138.2793  141.7549  163.2141 N.pl3   1  UNL1       -0.2175
     23 H         138.2894  140.8747  162.7732 H       1  UNL1        0.2921
@<TRIPOS>BOND
     1    10    11    1
     2    11    12   ar
     3    12    13   ar
     4    13    14   ar
     5    14     1    1
     6     1    17    1
     7    17    18    1
     8    18    19    2
     9    19    20    1
    10    20    21    1
    11    21    22    1
    12     1     2    1
    13     2     3   ar
    14     3     4   ar
    15     4     5   ar
    16     5     6   ar
    17     6     7    1
    18     6     8   ar
    19    14    15   ar
    20    15    16   ar
    21    16    11   ar
    22    22    18    1
    23     8     2   ar
    24    22    23    1
    25     7     9    1
@<TRIPOS>MOLECULE
*****
 23 25 0 0 0
SMALL
GASTEIGER

@<TRIPOS>ATOM
      1 N         140.6291  141.0632  166.7510 N.pl3   1  UNL1       -0.2759
      2 C         140.5474  141.4911  168.1864 C.ar    1  UNL1        0.0551
      3 C         140.6006  140.4649  169.2791 C.ar    1  UNL1        0.0150
      4 C         140.5188  140.8929  170.7145 C.ar    1  UNL1        0.0044
      5 C         140.3839  142.3470  171.0571 C.ar    1  UNL1        0.0367
      6 C         140.3307  143.3732  169.9643 C.ar    1  UNL1        0.1349
      7 O         140.1957  144.8273  170.3070 O.3     1  UNL1       -0.5055
      8 C         140.4124  142.9453  168.5290 C.ar    1  UNL1        0.0514
      9 H         140.1446  145.0946  171.2036 H       1  UNL1        0.2922
     10 C         145.8094  141.5559  163.7640 C.3     1  UNL1        0.0310
     11 C         144.5143  141.4327  164.5108 C.ar    1  UNL1       -0.0218
     12 C         143.8007  142.6647  164.9829 C.ar    1  UNL1       -0.0030
     13 C         142.5056  142.5415  165.7296 C.ar    1  UNL1        0.0145
     14 C         141.9242  141.1864  166.0043 C.ar    1  UNL1        0.0520
     15 C         142.6378  139.9544  165.5322 C.ar    1  UNL1        0.0145
     16 C         143.9329  140.0776  164.7854 C.ar    1  UNL1       -0.0030
     17 C         139.4158  140.5122  166.0625 C.3     1  UNL1        0.2131
     18 C         138.7291  141.3141  164.9969 C.2     1  UNL1        0.3125
     19 N         138.9622  142.7653  164.6976 N.2     1  UNL1       -0.0634
     20 C         138.0660  143.1537  163.5593 C.3     1  UNL1        0.3130
     21 C         137.2789  141.9425  163.1550 C.3     1  UNL1        0.2575
     22 N         137.6887  140.8055  164.0434 N.pl3   1  UNL1       -0.2175
     23 H         137.3367  139.8868  164.0072 H       1  UNL1        0.2921
@<TRIPOS>BOND
     1    10    11    1
     2    11    12   ar
     3    12    13   ar
     4    13    14   ar
     5    14     1    1
     6     1    17    1
     7    17    18    1
     8    18    19    2
     9    19    20    1
    10    20    21    1
    11    21    22    1
    12     1     2    1
    13     2     3   ar
    14     3     4   ar
    15     4     5   ar
    16     5     6   ar
    17     6     7    1
    18     6     8   ar
    19    14    15   ar
    20    15    16   ar
    21    16    11   ar
    22    22    18    1
    23     8     2   ar
    24    22    23    1
    25     7     9    1
@<TRIPOS>MOLECULE
*****
 23 25 0 0 0
SMALL
GASTEIGER

@<TRIPOS>ATOM
      1 N         141.2573  142.4151  164.9316 N.pl3   1  UNL1       -0.2759
      2 C         142.6567  142.0316  164.5515 C.ar    1  UNL1        0.0551
      3 C         143.7983  142.9529  164.8650 C.ar    1  UNL1        0.0150
      4 C         145.1977  142.5693  164.4848 C.ar    1  UNL1        0.0044
      5 C         145.4556  141.2646  163.7912 C.ar    1  UNL1        0.0367
      6 C         144.3141  140.3434  163.4777 C.ar    1  UNL1        0.1349
      7 O         144.5720  139.0386  162.7840 O.3     1  UNL1       -0.5055
      8 C         142.9147  140.7269  163.8578 C.ar    1  UNL1        0.0514
      9 H         145.4462  138.7990  162.5466 H       1  UNL1        0.2922
     10 C         137.5020  138.2781  167.1184 C.3     1  UNL1        0.0310
     11 C         138.4408  139.3123  166.5717 C.ar    1  UNL1       -0.0218
     12 C         138.2856  139.7948  165.1600 C.ar    1  UNL1       -0.0030
     13 C         139.2244  140.8290  164.6133 C.ar    1  UNL1        0.0145
     14 C         140.3185  141.3809  165.4783 C.ar    1  UNL1        0.0520
     15 C         140.4737  140.8984  166.8901 C.ar    1  UNL1        0.0145
     16 C         139.5349  139.8642  167.4368 C.ar    1  UNL1       -0.0030
     17 C         140.7968  143.8329  164.7651 C.3     1  UNL1        0.2131
     18 C         140.4969  144.3682  163.3963 C.2     1  UNL1        0.3125
     19 N         140.2930  143.5509  162.1551 N.2     1  UNL1       -0.0634
     20 C         140.0184  144.4923  161.0201 C.3     1  UNL1        0.3130
     21 C         140.0525  145.8915  161.5598 C.3     1  UNL1        0.2575
     22 N         140.3483  145.8148  163.0284 N.pl3   1  UNL1       -0.2175
     23 H         140.4304  146.5796  163.6428 H       1  UNL1        0.2921
@<TRIPOS>BOND
     1    10    11    1
     2    11    12   ar
     3    12    13   ar
     4    13    14   ar
     5    14     1    1
     6     1    17    1
     7    17    18    1
     8    18    19    2
     9    19    20    1
    10    20    21    1
    11    21    22    1
    12     1     2    1
    13     2     3   ar
    14     3     4   ar
    15     4     5   ar
    16     5     6   ar
    17     6     7    1
    18     6     8   ar
    19    14    15   ar
    20    15    16   ar
    21    16    11   ar
    22    22    18    1
    23     8     2   ar
    24    22    23    1
    25     7     9    1
@<TRIPOS>MOLECULE
*****
 23 25 0 0 0
SMALL
GASTEIGER

@<TRIPOS>ATOM
      1 N         139.6332  141.7880  165.7779 N.pl3   1  UNL1       -0.2759
      2 C         139.3509  142.8785  164.7874 C.ar    1  UNL1        0.0551
      3 C         138.0057  142.9642  164.1292 C.ar    1  UNL1        0.0150
      4 C         137.7234  144.0547  163.1387 C.ar    1  UNL1        0.0044
      5 C         138.7863  145.0596  162.8064 C.ar    1  UNL1        0.0367
      6 C         140.1315  144.9740  163.4645 C.ar    1  UNL1        0.1349
      7 O         141.1944  145.9789  163.1322 O.3     1  UNL1       -0.5055
      8 C         140.4138  143.8835  164.4550 C.ar    1  UNL1        0.0514
      9 H         141.0181  146.6601  162.5134 H       1  UNL1        0.2922
     10 C         143.9656  142.4977  169.8676 C.3     1  UNL1        0.0310
     11 C         142.8825  142.3203  168.8452 C.ar    1  UNL1       -0.0218
     12 C         141.4992  142.8301  169.1218 C.ar    1  UNL1       -0.0030
     13 C         140.4161  142.6527  168.0993 C.ar    1  UNL1        0.0145
     14 C         140.7163  141.9654  166.8003 C.ar    1  UNL1        0.0520
     15 C         142.0996  141.4556  166.5237 C.ar    1  UNL1        0.0145
     16 C         143.1827  141.6330  167.5462 C.ar    1  UNL1       -0.0030
     17 C         138.8323  140.5201  165.7459 C.3     1  UNL1        0.2131
     18 C         139.2562  139.3875  164.8585 C.2     1  UNL1        0.3125
     19 N         140.4563  138.5106  165.0605 N.2     1  UNL1       -0.0634
     20 C         140.4961  137.5141  163.9401 C.3     1  UNL1        0.3130
     21 C         139.3207  137.7751  163.0456 C.3     1  UNL1        0.2575
     22 N         138.5543  138.9329  163.6131 N.pl3   1  UNL1       -0.2175
     23 H         137.7346  139.3256  163.2347 H       1  UNL1        0.2921
@<TRIPOS>BOND
     1    10    11    1
     2    11    12   ar
     3    12    13   ar
     4    13    14   ar
     5    14     1    1
     6     1    17    1
     7    17    18    1
     8    18    19    2
     9    19    20    1
    10    20    21    1
    11    21    22    1
    12     1     2    1
    13     2     3   ar
    14     3     4   ar
    15     4     5   ar
    16     5     6   ar
    17     6     7    1
    18     6     8   ar
    19    14    15   ar
    20    15    16   ar
    21    16    11   ar
    22    22    18    1
    23     8     2   ar
    24    22    23    1
    25     7     9    1
@<TRIPOS>MOLECULE
*****
 23 25 0 0 0
SMALL
GASTEIGER

@<TRIPOS>ATOM
      1 N         141.3802  142.0276  166.0176 N.pl3   1  UNL1       -0.2759
      2 C         141.5912  142.4074  167.4532 C.ar    1  UNL1        0.0551
      3 C         140.4661  143.0073  168.2434 C.ar    1  UNL1        0.0150
      4 C         140.6771  143.3871  169.6792 C.ar    1  UNL1        0.0044
      5 C         142.0131  143.1670  170.3247 C.ar    1  UNL1        0.0367
      6 C         143.1381  142.5670  169.5345 C.ar    1  UNL1        0.1349
      7 O         144.4741  142.3468  170.1801 O.3     1  UNL1       -0.5055
      8 C         142.9272  142.1872  168.0988 C.ar    1  UNL1        0.0514
      9 H         144.6059  142.5841  171.0769 H       1  UNL1        0.2922
     10 C         139.8777  146.2185  161.9953 C.3     1  UNL1        0.0310
     11 C         140.2533  145.1707  163.0008 C.ar    1  UNL1       -0.0218
     12 C         139.1858  144.3587  163.6723 C.ar    1  UNL1       -0.0030
     13 C         139.5614  143.3110  164.6779 C.ar    1  UNL1        0.0145
     14 C         141.0046  143.0753  165.0120 C.ar    1  UNL1        0.0520
     15 C         142.0721  143.8873  164.3405 C.ar    1  UNL1        0.0145
     16 C         141.6965  144.9350  163.3349 C.ar    1  UNL1       -0.0030
     17 C         141.5449  140.6001  165.5875 C.3     1  UNL1        0.2131
     18 C         142.7247  140.1998  164.7520 C.2     1  UNL1        0.3125
     19 N         144.0965  140.8029  164.8172 N.2     1  UNL1       -0.0634
     20 C         144.9594  140.1020  163.8102 C.3     1  UNL1        0.3130
     21 C         144.1209  139.0657  163.1226 C.3     1  UNL1        0.2575
     22 N         142.7397  139.1261  163.7046 N.pl3   1  UNL1       -0.2175
     23 H         141.9770  138.5603  163.4448 H       1  UNL1        0.2921
@<TRIPOS>BOND
     1    10    11    1
     2    11    12   ar
     3    12    13   ar
     4    13    14   ar
     5    14     1    1
     6     1    17    1
     7    17    18    1
     8    18    19    2
     9    19    20    1
    10    20    21    1
    11    21    22    1
    12     1     2    1
    13     2     3   ar
    14     3     4   ar
    15     4     5   ar
    16     5     6   ar
    17     6     7    1
    18     6     8   ar
    19    14    15   ar
    20    15    16   ar
    21    16    11   ar
    22    22    18    1
    23     8     2   ar
    24    22    23    1
    25     7     9    1
@<TRIPOS>MOLECULE
*****
 23 25 0 0 0
SMALL
GASTEIGER

@<TRIPOS>ATOM
      1 N         140.4392  141.4793  166.4632 N.pl3   1  UNL1       -0.2759
      2 C         140.3564  141.6612  167.9498 C.ar    1  UNL1        0.0551
      3 C         140.5509  143.0217  168.5509 C.ar    1  UNL1        0.0150
      4 C         140.4681  143.2035  170.0376 C.ar    1  UNL1        0.0044
      5 C         140.1909  142.0250  170.9231 C.ar    1  UNL1        0.0367
      6 C         139.9964  140.6645  170.3220 C.ar    1  UNL1        0.1349
      7 O         139.7192  139.4859  171.2076 O.3     1  UNL1       -0.5055
      8 C         140.0792  140.4826  168.8354 C.ar    1  UNL1        0.0514
      9 H         139.6675  139.5996  172.1362 H       1  UNL1        0.2922
     10 C         145.7766  141.5592  163.7236 C.3     1  UNL1        0.0310
     11 C         144.4423  141.5392  164.4085 C.ar    1  UNL1       -0.0218
     12 C         143.6432  142.8027  164.5312 C.ar    1  UNL1       -0.0030
     13 C         142.3089  142.7827  165.2161 C.ar    1  UNL1        0.0145
     14 C         141.7736  141.4993  165.7783 C.ar    1  UNL1        0.0520
     15 C         142.5726  140.2358  165.6556 C.ar    1  UNL1        0.0145
     16 C         143.9070  140.2558  164.9707 C.ar    1  UNL1       -0.0030
     17 C         139.1876  141.2774  165.6615 C.3     1  UNL1        0.2131
     18 C         139.0238  140.0432  164.8249 C.2     1  UNL1        0.3125
     19 N         138.5154  139.9952  163.4145 N.2     1  UNL1       -0.0634
     20 C         138.5169  138.5627  162.9696 C.3     1  UNL1        0.3130
     21 C         139.0262  137.7253  164.1051 C.3     1  UNL1        0.2575
     22 N         139.3395  138.6403  165.2518 N.pl3   1  UNL1       -0.2175
     23 H         139.6906  138.3679  166.1303 H       1  UNL1        0.2921
@<TRIPOS>BOND
     1    10    11    1
     2    11    12   ar
     3    12    13   ar
     4    13    14   ar
     5    14     1    1
     6     1    17    1
     7    17    18    1
     8    18    19    2
     9    19    20    1
    10    20    21    1
    11    21    22    1
    12     1     2    1
    13     2     3   ar
    14     3     4   ar
    15     4     5   ar
    16     5     6   ar
    17     6     7    1
    18     6     8   ar
    19    14    15   ar
    20    15    16   ar
    21    16    11   ar
    22    22    18    1
    23     8     2   ar
    24    22    23    1
    25     7     9    1
