@<TRIPOS>MOLECULE
*****
 28 31 0 0 0
SMALL
GASTEIGER

@<TRIPOS>ATOM
      1 C         139.6086  142.9777  161.7674 C.3     1  UNL1        0.0035
      2 C         140.7838  142.2767  162.3816 C.3     1  UNL1        0.0215
      3 C         140.6301  141.5617  163.6913 C.3     1  UNL1        0.0922
      4 N         139.3012  141.5477  164.3867 N.pl3   1  UNL1       -0.2932
      5 C         138.1259  142.2488  163.7725 C.3     1  UNL1        0.0922
      6 C         138.2796  142.9638  162.4629 C.3     1  UNL1        0.0215
      7 C         139.1475  140.8327  165.6963 C.ar    1  UNL1        0.1352
      8 C         139.9069  141.3031  166.9013 C.ar    1  UNL1        0.0640
      9 C         139.7532  140.5881  168.2109 C.ar    1  UNL1        0.1532
     10 N         138.8401  139.4027  168.3156 N.ar    1  UNL1       -0.2203
     11 C         138.0807  138.9323  167.1106 C.ar    1  UNL1        0.1417
     12 C         137.1676  137.7468  167.2153 C.3     1  UNL1        0.0737
     13 N         138.2344  139.6473  165.8010 N.ar    1  UNL1       -0.2160
     14 C         140.5126  141.0586  169.4160 C.1     1  UNL1        0.1199
     15 N         141.2721  141.5291  170.6209 N.1     1  UNL1       -0.1893
     16 N         140.0697  145.1227  157.8385 N.pl3   1  UNL1       -0.2920
     17 C         139.5871  143.7028  157.8657 C.3     1  UNL1        0.0922
     18 C         139.4334  142.9878  159.1753 C.3     1  UNL1        0.0215
     19 C         139.7623  143.6927  160.4578 C.3     1  UNL1        0.0035
     20 C         140.2448  145.1127  160.4306 C.3     1  UNL1        0.0215
     21 C         140.3985  145.8277  159.1210 C.3     1  UNL1        0.0922
     22 C         140.6844  147.9827  152.6000 C.3     1  UNL1        0.0538
     23 C         140.5307  147.2677  153.9096 C.ar    1  UNL1        0.0786
     24 C         139.5788  147.7923  154.9433 C.ar    1  UNL1        0.1150
     25 N         139.4251  147.0773  156.2530 N.ar    1  UNL1       -0.2263
     26 C         140.2234  145.8377  156.5289 C.ar    1  UNL1        0.1511
     27 C         141.1753  145.3131  155.4952 C.ar    1  UNL1        0.1326
     28 N         141.3290  146.0281  154.1855 N.ar    1  UNL1       -0.2437
@<TRIPOS>BOND
     1    22    23    1
     2    23    24   ar
     3    24    25   ar
     4    25    26   ar
     5    26    16    1
     6    16    17    1
     7    17    18    1
     8    18    19    1
     9    19     1    1
    10     1     2    1
    11     2     3    1
    12     3     4    1
    13     4     7    1
    14     7     8   ar
    15     8     9   ar
    16     9    14    1
    17    14    15    3
    18     9    10   ar
    19    10    11   ar
    20    11    12    1
    21    11    13   ar
    22     4     5    1
    23     5     6    1
    24    19    20    1
    25    20    21    1
    26    26    27   ar
    27    27    28   ar
    28    28    23   ar
    29    21    16    1
    30     6     1    1
    31    13     7   ar
@<TRIPOS>MOLECULE
*****
 28 31 0 0 0
SMALL
GASTEIGER

@<TRIPOS>ATOM
      1 C         141.4082  143.6456  162.7441 C.3     1  UNL1        0.0035
      2 C         140.1533  143.6014  163.5647 C.3     1  UNL1        0.0215
      3 C         140.2090  143.1596  164.9971 C.3     1  UNL1        0.0922
      4 N         141.5196  142.7620  165.6089 N.pl3   1  UNL1       -0.2932
      5 C         142.7744  142.8062  164.7883 C.3     1  UNL1        0.0922
      6 C         142.7187  143.2480  163.3559 C.3     1  UNL1        0.0215
      7 C         141.5752  142.3202  167.0412 C.ar    1  UNL1        0.1352
      8 C         140.3867  141.6526  167.6669 C.ar    1  UNL1        0.0640
      9 C         140.4424  141.2108  169.0993 C.ar    1  UNL1        0.1532
     10 N         141.6866  141.4366  169.9060 N.ar    1  UNL1       -0.2203
     11 C         142.8752  142.1042  169.2803 C.ar    1  UNL1        0.1417
     12 C         144.1195  142.3300  170.0870 C.3     1  UNL1        0.0737
     13 N         142.8195  142.5460  167.8479 N.ar    1  UNL1       -0.2160
     14 C         139.2537  140.5431  169.7250 C.1     1  UNL1        0.1199
     15 N         138.0651  139.8755  170.3507 N.1     1  UNL1       -0.1893
     16 N         141.2411  144.9710  158.4470 N.pl3   1  UNL1       -0.2920
     17 C         142.1891  143.8846  158.8604 C.3     1  UNL1        0.0922
     18 C         142.2447  143.4428  160.2928 C.3     1  UNL1        0.0215
     19 C         141.3525  144.0874  161.3117 C.3     1  UNL1        0.0035
     20 C         140.4046  145.1739  160.8983 C.3     1  UNL1        0.0215
     21 C         140.3489  145.6157  159.4659 C.3     1  UNL1        0.0922
     22 C         141.0184  146.7382  152.7175 C.3     1  UNL1        0.0538
     23 C         141.0741  146.2964  154.1498 C.ar    1  UNL1        0.0786
     24 C         140.0326  146.7677  155.1211 C.ar    1  UNL1        0.1150
     25 N         140.0883  146.3258  156.5535 N.ar    1  UNL1       -0.2263
     26 C         141.1854  145.4128  157.0146 C.ar    1  UNL1        0.1511
     27 C         142.2268  144.9416  156.0434 C.ar    1  UNL1        0.1326
     28 N         142.1712  145.3834  154.6110 N.ar    1  UNL1       -0.2437
@<TRIPOS>BOND
     1    22    23    1
     2    23    24   ar
     3    24    25   ar
     4    25    26   ar
     5    26    16    1
     6    16    17    1
     7    17    18    1
     8    18    19    1
     9    19     1    1
    10     1     2    1
    11     2     3    1
    12     3     4    1
    13     4     7    1
    14     7     8   ar
    15     8     9   ar
    16     9    14    1
    17    14    15    3
    18     9    10   ar
    19    10    11   ar
    20    11    12    1
    21    11    13   ar
    22     4     5    1
    23     5     6    1
    24    19    20    1
    25    20    21    1
    26    26    27   ar
    27    27    28   ar
    28    28    23   ar
    29    21    16    1
    30     6     1    1
    31    13     7   ar
@<TRIPOS>MOLECULE
*****
 28 31 0 0 0
SMALL
GASTEIGER

@<TRIPOS>ATOM
      1 C         143.3993  141.2310  162.6003 C.3     1  UNL1        0.0035
      2 C         144.3391  141.8253  163.6070 C.3     1  UNL1        0.0215
      3 C         143.9866  141.8062  165.0648 C.3     1  UNL1        0.0922
      4 N         142.6942  141.1928  165.5160 N.pl3   1  UNL1       -0.2932
      5 C         141.7544  140.5985  164.5093 C.3     1  UNL1        0.0922
      6 C         142.1069  140.6176  163.0514 C.3     1  UNL1        0.0215
      7 C         142.3417  141.1737  166.9739 C.ar    1  UNL1        0.1352
      8 C         141.6883  142.3683  167.6032 C.ar    1  UNL1        0.0640
      9 C         141.3358  142.3492  169.0610 C.ar    1  UNL1        0.1532
     10 N         141.6367  141.1356  169.8896 N.ar    1  UNL1       -0.2203
     11 C         142.2901  139.9410  169.2603 C.ar    1  UNL1        0.1417
     12 C         142.5910  138.7273  170.0888 C.3     1  UNL1        0.0737
     13 N         142.6426  139.9601  167.8024 N.ar    1  UNL1       -0.2160
     14 C         140.6823  143.5438  169.6903 C.1     1  UNL1        0.1199
     15 N         140.0289  144.7384  170.3196 N.1     1  UNL1       -0.1893
     16 N         144.4569  141.2882  158.2267 N.pl3   1  UNL1       -0.2920
     17 C         144.7545  142.4811  159.0860 C.3     1  UNL1        0.0922
     18 C         144.4020  142.4620  160.5438 C.3     1  UNL1        0.0215
     19 C         143.7518  141.2501  161.1424 C.3     1  UNL1        0.0035
     20 C         143.4541  140.0572  160.2831 C.3     1  UNL1        0.0215
     21 C         143.8067  140.0763  158.8253 C.3     1  UNL1        0.0922
     22 C         145.8670  141.3645  152.3952 C.3     1  UNL1        0.0538
     23 C         145.5144  141.3455  153.8531 C.ar    1  UNL1        0.0786
     24 C         146.4548  141.9386  154.8599 C.ar    1  UNL1        0.1150
     25 N         146.1023  141.9195  156.3178 N.ar    1  UNL1       -0.2263
     26 C         144.8094  141.3073  156.7688 C.ar    1  UNL1        0.1511
     27 C         143.8690  140.7142  155.7620 C.ar    1  UNL1        0.1326
     28 N         144.2215  140.7333  154.3041 N.ar    1  UNL1       -0.2437
@<TRIPOS>BOND
     1    22    23    1
     2    23    24   ar
     3    24    25   ar
     4    25    26   ar
     5    26    16    1
     6    16    17    1
     7    17    18    1
     8    18    19    1
     9    19     1    1
    10     1     2    1
    11     2     3    1
    12     3     4    1
    13     4     7    1
    14     7     8   ar
    15     8     9   ar
    16     9    14    1
    17    14    15    3
    18     9    10   ar
    19    10    11   ar
    20    11    12    1
    21    11    13   ar
    22     4     5    1
    23     5     6    1
    24    19    20    1
    25    20    21    1
    26    26    27   ar
    27    27    28   ar
    28    28    23   ar
    29    21    16    1
    30     6     1    1
    31    13     7   ar
@<TRIPOS>MOLECULE
*****
 28 31 0 0 0
SMALL
GASTEIGER

@<TRIPOS>ATOM
      1 C         141.4101  139.1405  162.3707 C.3     1  UNL1        0.0035
      2 C         140.8448  140.4745  162.7587 C.3     1  UNL1        0.0215
      3 C         140.8086  140.8827  164.2017 C.3     1  UNL1        0.0922
      4 N         141.3377  139.9569  165.2565 N.pl3   1  UNL1       -0.2932
      5 C         141.9031  138.6229  164.8685 C.3     1  UNL1        0.0922
      6 C         141.9393  138.2146  163.4255 C.3     1  UNL1        0.0215
      7 C         141.3015  140.3651  166.6995 C.ar    1  UNL1        0.1352
      8 C         140.1010  140.0446  167.5397 C.ar    1  UNL1        0.0640
      9 C         140.0648  140.4528  168.9826 C.ar    1  UNL1        0.1532
     10 N         141.2291  141.1816  169.5853 N.ar    1  UNL1       -0.2203
     11 C         142.4296  141.5021  168.7451 C.ar    1  UNL1        0.1417
     12 C         143.5940  142.2309  169.3478 C.3     1  UNL1        0.0737
     13 N         142.4658  141.0939  167.3021 N.ar    1  UNL1       -0.2160
     14 C         138.8643  140.1323  169.8229 C.1     1  UNL1        0.1199
     15 N         137.6637  139.8118  170.6630 N.1     1  UNL1       -0.1893
     16 N         141.5187  137.9158  158.0419 N.pl3   1  UNL1       -0.2920
     17 C         142.7392  137.7525  158.8984 C.3     1  UNL1        0.0922
     18 C         142.7030  138.1607  160.3413 C.3     1  UNL1        0.0215
     19 C         141.4463  138.7322  160.9277 C.3     1  UNL1        0.0035
     20 C         140.2258  138.8955  160.0713 C.3     1  UNL1        0.0215
     21 C         140.2620  138.4873  158.6283 C.3     1  UNL1        0.0922
     22 C         141.6635  136.2829  152.2702 C.3     1  UNL1        0.0538
     23 C         141.6273  136.6911  153.7131 C.ar    1  UNL1        0.0786
     24 C         141.1662  138.0673  154.0919 C.ar    1  UNL1        0.1150
     25 N         141.1300  138.4755  155.5348 N.ar    1  UNL1       -0.2263
     26 C         141.5549  137.5076  156.5990 C.ar    1  UNL1        0.1511
     27 C         142.0160  136.1314  156.2202 C.ar    1  UNL1        0.1326
     28 N         142.0522  135.7232  154.7773 N.ar    1  UNL1       -0.2437
@<TRIPOS>BOND
     1    22    23    1
     2    23    24   ar
     3    24    25   ar
     4    25    26   ar
     5    26    16    1
     6    16    17    1
     7    17    18    1
     8    18    19    1
     9    19     1    1
    10     1     2    1
    11     2     3    1
    12     3     4    1
    13     4     7    1
    14     7     8   ar
    15     8     9   ar
    16     9    14    1
    17    14    15    3
    18     9    10   ar
    19    10    11   ar
    20    11    12    1
    21    11    13   ar
    22     4     5    1
    23     5     6    1
    24    19    20    1
    25    20    21    1
    26    26    27   ar
    27    27    28   ar
    28    28    23   ar
    29    21    16    1
    30     6     1    1
    31    13     7   ar
@<TRIPOS>MOLECULE
*****
 28 31 0 0 0
SMALL
GASTEIGER

@<TRIPOS>ATOM
      1 C         142.0455  139.3166  163.3071 C.3     1  UNL1        0.0035
      2 C         143.2163  140.0826  163.8477 C.3     1  UNL1        0.0215
      3 C         143.2266  140.5235  165.2814 C.3     1  UNL1        0.0922
      4 N         142.0661  140.1985  166.1745 N.pl3   1  UNL1       -0.2932
      5 C         140.8953  139.4324  165.6338 C.3     1  UNL1        0.0922
      6 C         140.8850  138.9915  164.2001 C.3     1  UNL1        0.0215
      7 C         142.0765  140.6394  167.6082 C.ar    1  UNL1        0.1352
      8 C         141.3756  141.9035  168.0091 C.ar    1  UNL1        0.0640
      9 C         141.3859  142.3444  169.4428 C.ar    1  UNL1        0.1532
     10 N         142.0971  141.5213  170.4755 N.ar    1  UNL1       -0.2203
     11 C         142.7980  140.2572  170.0746 C.ar    1  UNL1        0.1417
     12 C         143.5093  139.4340  171.1073 C.3     1  UNL1        0.0737
     13 N         142.7877  139.8163  168.6409 N.ar    1  UNL1       -0.2160
     14 C         140.6850  143.6086  169.8438 C.1     1  UNL1        0.1199
     15 N         139.9840  144.8726  170.2446 N.1     1  UNL1       -0.1893
     16 N         142.0144  137.9937  159.0060 N.pl3   1  UNL1       -0.2920
     17 C         143.1472  137.5955  159.9050 C.3     1  UNL1        0.0922
     18 C         143.1575  138.0365  161.3387 C.3     1  UNL1        0.0215
     19 C         142.0351  138.8756  161.8734 C.3     1  UNL1        0.0035
     20 C         140.9024  139.2738  160.9744 C.3     1  UNL1        0.0215
     21 C         140.8920  138.8329  159.5407 C.3     1  UNL1        0.0922
     22 C         141.9731  136.2300  153.2713 C.3     1  UNL1        0.0538
     23 C         141.9834  136.6709  154.7050 C.ar    1  UNL1        0.0786
     24 C         143.2745  136.7128  155.4675 C.ar    1  UNL1        0.1150
     25 N         143.2848  137.1538  156.9011 N.ar    1  UNL1       -0.2263
     26 C         142.0041  137.5528  157.5723 C.ar    1  UNL1        0.1511
     27 C         140.7131  137.5109  156.8099 C.ar    1  UNL1        0.1326
     28 N         140.7027  137.0699  155.3762 N.ar    1  UNL1       -0.2437
@<TRIPOS>BOND
     1    22    23    1
     2    23    24   ar
     3    24    25   ar
     4    25    26   ar
     5    26    16    1
     6    16    17    1
     7    17    18    1
     8    18    19    1
     9    19     1    1
    10     1     2    1
    11     2     3    1
    12     3     4    1
    13     4     7    1
    14     7     8   ar
    15     8     9   ar
    16     9    14    1
    17    14    15    3
    18     9    10   ar
    19    10    11   ar
    20    11    12    1
    21    11    13   ar
    22     4     5    1
    23     5     6    1
    24    19    20    1
    25    20    21    1
    26    26    27   ar
    27    27    28   ar
    28    28    23   ar
    29    21    16    1
    30     6     1    1
    31    13     7   ar
@<TRIPOS>MOLECULE
*****
 28 31 0 0 0
SMALL
GASTEIGER

@<TRIPOS>ATOM
      1 C         142.9412  141.0550  163.1181 C.3     1  UNL1        0.0035
      2 C         142.3759  139.8891  163.8737 C.3     1  UNL1        0.0215
      3 C         142.0007  140.0422  165.3180 C.3     1  UNL1        0.0922
      4 N         142.1909  141.3611  166.0066 N.pl3   1  UNL1       -0.2932
      5 C         142.7563  142.5270  165.2509 C.3     1  UNL1        0.0922
      6 C         143.1314  142.3739  163.8067 C.3     1  UNL1        0.0215
      7 C         141.8158  141.5141  167.4508 C.ar    1  UNL1        0.1352
      8 C         140.5745  140.8567  167.9770 C.ar    1  UNL1        0.0640
      9 C         140.1993  141.0098  169.4212 C.ar    1  UNL1        0.1532
     10 N         141.0654  141.8202  170.3393 N.ar    1  UNL1       -0.2203
     11 C         142.3067  142.4777  169.8131 C.ar    1  UNL1        0.1417
     12 C         143.1730  143.2882  170.7312 C.3     1  UNL1        0.0737
     13 N         142.6819  142.3246  168.3689 N.ar    1  UNL1       -0.2160
     14 C         138.9579  140.3523  169.9474 C.1     1  UNL1        0.1199
     15 N         137.7166  139.6948  170.4736 N.1     1  UNL1       -0.1893
     16 N         144.0667  140.5959  158.7853 N.pl3   1  UNL1       -0.2920
     17 C         143.6614  139.3942  159.5863 C.3     1  UNL1        0.0922
     18 C         143.2862  139.5473  161.0306 C.3     1  UNL1        0.0215
     19 C         143.3164  140.9020  161.6738 C.3     1  UNL1        0.0035
     20 C         143.7217  142.1036  160.8728 C.3     1  UNL1        0.0215
     21 C         144.0969  141.9506  159.4286 C.3     1  UNL1        0.0922
     22 C         145.5673  139.9837  153.0084 C.3     1  UNL1        0.0538
     23 C         145.1922  140.1367  154.4526 C.ar    1  UNL1        0.0786
     24 C         144.3500  139.0924  155.1235 C.ar    1  UNL1        0.1150
     25 N         143.9748  139.2455  156.5677 N.ar    1  UNL1       -0.2263
     26 C         144.4419  140.4428  157.3411 C.ar    1  UNL1        0.1511
     27 C         145.2841  141.4871  156.6703 C.ar    1  UNL1        0.1326
     28 N         145.6592  141.3341  155.2260 N.ar    1  UNL1       -0.2437
@<TRIPOS>BOND
     1    22    23    1
     2    23    24   ar
     3    24    25   ar
     4    25    26   ar
     5    26    16    1
     6    16    17    1
     7    17    18    1
     8    18    19    1
     9    19     1    1
    10     1     2    1
    11     2     3    1
    12     3     4    1
    13     4     7    1
    14     7     8   ar
    15     8     9   ar
    16     9    14    1
    17    14    15    3
    18     9    10   ar
    19    10    11   ar
    20    11    12    1
    21    11    13   ar
    22     4     5    1
    23     5     6    1
    24    19    20    1
    25    20    21    1
    26    26    27   ar
    27    27    28   ar
    28    28    23   ar
    29    21    16    1
    30     6     1    1
    31    13     7   ar
@<TRIPOS>MOLECULE
*****
 28 31 0 0 0
SMALL
GASTEIGER

@<TRIPOS>ATOM
      1 C         141.3462  139.0867  162.4697 C.3     1  UNL1        0.0035
      2 C         141.9805  140.3818  162.8824 C.3     1  UNL1        0.0215
      3 C         141.9426  140.8113  164.3191 C.3     1  UNL1        0.0922
      4 N         141.2704  139.9457  165.3431 N.pl3   1  UNL1       -0.2932
      5 C         140.6360  138.6506  164.9305 C.3     1  UNL1        0.0922
      6 C         140.6739  138.2211  163.4938 C.3     1  UNL1        0.0215
      7 C         141.2325  140.3752  166.7798 C.ar    1  UNL1        0.1352
      8 C         142.4094  141.0837  167.3821 C.ar    1  UNL1        0.0640
      9 C         142.3715  141.5132  168.8188 C.ar    1  UNL1        0.1532
     10 N         141.1567  141.2341  169.6532 N.ar    1  UNL1       -0.2203
     11 C         139.9797  140.5256  169.0509 C.ar    1  UNL1        0.1417
     12 C         138.7648  140.2466  169.8854 C.3     1  UNL1        0.0737
     13 N         140.0176  140.0962  167.6142 N.ar    1  UNL1       -0.2160
     14 C         143.5485  142.2217  169.4211 C.1     1  UNL1        0.1199
     15 N         144.7255  142.9302  170.0233 N.1     1  UNL1       -0.1893
     16 N         141.4599  137.7983  158.1596 N.pl3   1  UNL1       -0.2920
     17 C         142.6787  137.6456  159.0205 C.3     1  UNL1        0.0922
     18 C         142.6408  138.0751  160.4572 C.3     1  UNL1        0.0215
     19 C         141.3841  138.6572  161.0330 C.3     1  UNL1        0.0035
     20 C         140.1652  138.8099  160.1722 C.3     1  UNL1        0.0215
     21 C         140.2031  138.3804  158.7355 C.3     1  UNL1        0.0922
     22 C         141.6115  136.0803  152.4128 C.3     1  UNL1        0.0538
     23 C         141.5736  136.5098  153.8495 C.ar    1  UNL1        0.0786
     24 C         141.9884  135.5546  154.9291 C.ar    1  UNL1        0.1150
     25 N         141.9505  135.9841  156.3658 N.ar    1  UNL1       -0.2263
     26 C         141.4978  137.3688  156.7229 C.ar    1  UNL1        0.1511
     27 C         141.0829  138.3240  155.6434 C.ar    1  UNL1        0.1326
     28 N         141.1208  137.8945  154.2067 N.ar    1  UNL1       -0.2437
@<TRIPOS>BOND
     1    22    23    1
     2    23    24   ar
     3    24    25   ar
     4    25    26   ar
     5    26    16    1
     6    16    17    1
     7    17    18    1
     8    18    19    1
     9    19     1    1
    10     1     2    1
    11     2     3    1
    12     3     4    1
    13     4     7    1
    14     7     8   ar
    15     8     9   ar
    16     9    14    1
    17    14    15    3
    18     9    10   ar
    19    10    11   ar
    20    11    12    1
    21    11    13   ar
    22     4     5    1
    23     5     6    1
    24    19    20    1
    25    20    21    1
    26    26    27   ar
    27    27    28   ar
    28    28    23   ar
    29    21    16    1
    30     6     1    1
    31    13     7   ar
@<TRIPOS>MOLECULE
*****
 28 31 0 0 0
SMALL
GASTEIGER

@<TRIPOS>ATOM
      1 C         139.2843  141.5308  162.6038 C.3     1  UNL1        0.0035
      2 C         140.5054  142.3055  163.0025 C.3     1  UNL1        0.0215
      3 C         140.9347  142.3417  164.4393 C.3     1  UNL1        0.0922
      4 N         140.1429  141.6034  165.4774 N.pl3   1  UNL1       -0.2932
      5 C         138.9219  140.8288  165.0788 C.3     1  UNL1        0.0922
      6 C         138.4926  140.7925  163.6420 C.3     1  UNL1        0.0215
      7 C         140.5722  141.6397  166.9143 C.ar    1  UNL1        0.1352
      8 C         141.2715  140.4580  167.5181 C.ar    1  UNL1        0.0640
      9 C         141.7008  140.4943  168.9549 C.ar    1  UNL1        0.1532
     10 N         141.4308  141.7122  169.7879 N.ar    1  UNL1       -0.2203
     11 C         140.7315  142.8938  169.1840 C.ar    1  UNL1        0.1417
     12 C         140.4615  144.1118  170.0169 C.3     1  UNL1        0.0737
     13 N         140.3022  142.8576  167.7472 N.ar    1  UNL1       -0.2160
     14 C         142.4001  139.3126  169.5588 C.1     1  UNL1        0.1199
     15 N         143.0994  138.1310  170.1627 N.1     1  UNL1       -0.1893
     16 N         137.9965  141.4220  158.2934 N.pl3   1  UNL1       -0.2920
     17 C         137.7832  140.2240  159.1704 C.3     1  UNL1        0.0922
     18 C         138.2125  140.2602  160.6072 C.3     1  UNL1        0.0215
     19 C         138.8551  141.4946  161.1670 C.3     1  UNL1        0.0035
     20 C         139.0684  142.6926  160.2901 C.3     1  UNL1        0.0215
     21 C         138.6391  142.6564  158.8533 C.3     1  UNL1        0.0922
     22 C         136.2794  141.2769  152.5462 C.3     1  UNL1        0.0538
     23 C         136.7086  141.3132  153.9830 C.ar    1  UNL1        0.0786
     24 C         138.0891  141.7773  154.3418 C.ar    1  UNL1        0.1150
     25 N         138.5184  141.8136  155.7786 N.ar    1  UNL1       -0.2263
     26 C         137.5672  141.3858  156.8566 C.ar    1  UNL1        0.1511
     27 C         136.1867  140.9217  156.4978 C.ar    1  UNL1        0.1326
     28 N         135.7574  140.8854  155.0610 N.ar    1  UNL1       -0.2437
@<TRIPOS>BOND
     1    22    23    1
     2    23    24   ar
     3    24    25   ar
     4    25    26   ar
     5    26    16    1
     6    16    17    1
     7    17    18    1
     8    18    19    1
     9    19     1    1
    10     1     2    1
    11     2     3    1
    12     3     4    1
    13     4     7    1
    14     7     8   ar
    15     8     9   ar
    16     9    14    1
    17    14    15    3
    18     9    10   ar
    19    10    11   ar
    20    11    12    1
    21    11    13   ar
    22     4     5    1
    23     5     6    1
    24    19    20    1
    25    20    21    1
    26    26    27   ar
    27    27    28   ar
    28    28    23   ar
    29    21    16    1
    30     6     1    1
    31    13     7   ar
@<TRIPOS>MOLECULE
*****
 28 31 0 0 0
SMALL
GASTEIGER

@<TRIPOS>ATOM
      1 C         140.7793  139.5330  162.9430 C.3     1  UNL1        0.0035
      2 C         141.7954  140.5679  163.3256 C.3     1  UNL1        0.0215
      3 C         141.9911  140.9295  164.7682 C.3     1  UNL1        0.0922
      4 N         141.1708  140.2561  165.8281 N.pl3   1  UNL1       -0.2932
      5 C         140.1547  139.2212  165.4456 C.3     1  UNL1        0.0922
      6 C         139.9590  138.8596  164.0030 C.3     1  UNL1        0.0215
      7 C         141.3666  140.6176  167.2707 C.ar    1  UNL1        0.1352
      8 C         140.8524  141.9267  167.7923 C.ar    1  UNL1        0.0640
      9 C         141.0482  142.2882  169.2348 C.ar    1  UNL1        0.1532
     10 N         141.7581  141.3408  170.1558 N.ar    1  UNL1       -0.2203
     11 C         142.2723  140.0317  169.6342 C.ar    1  UNL1        0.1417
     12 C         142.9822  139.0842  170.5553 C.3     1  UNL1        0.0737
     13 N         142.0765  139.6702  168.1917 N.ar    1  UNL1       -0.2160
     14 C         140.5340  143.5973  169.7563 C.1     1  UNL1        0.1199
     15 N         140.0198  144.9063  170.2778 N.1     1  UNL1       -0.1893
     16 N         140.1920  138.4483  158.6154 N.pl3   1  UNL1       -0.2920
     17 C         139.0201  138.8803  159.4460 C.3     1  UNL1        0.0922
     18 C         139.2159  139.2419  160.8886 C.3     1  UNL1        0.0215
     19 C         140.5835  139.1714  161.5005 C.3     1  UNL1        0.0035
     20 C         141.7554  138.7394  160.6699 C.3     1  UNL1        0.0215
     21 C         141.5597  138.3779  159.2273 C.3     1  UNL1        0.0922
     22 C         139.4090  137.0021  152.8452 C.3     1  UNL1        0.0538
     23 C         139.6047  137.3637  154.2877 C.ar    1  UNL1        0.0786
     24 C         138.7104  138.3795  154.9344 C.ar    1  UNL1        0.1150
     25 N         138.9061  138.7410  156.3769 N.ar    1  UNL1       -0.2263
     26 C         139.9962  138.0868  157.1728 C.ar    1  UNL1        0.1511
     27 C         140.8906  137.0709  156.5262 C.ar    1  UNL1        0.1326
     28 N         140.6948  136.7094  155.0837 N.ar    1  UNL1       -0.2437
@<TRIPOS>BOND
     1    22    23    1
     2    23    24   ar
     3    24    25   ar
     4    25    26   ar
     5    26    16    1
     6    16    17    1
     7    17    18    1
     8    18    19    1
     9    19     1    1
    10     1     2    1
    11     2     3    1
    12     3     4    1
    13     4     7    1
    14     7     8   ar
    15     8     9   ar
    16     9    14    1
    17    14    15    3
    18     9    10   ar
    19    10    11   ar
    20    11    12    1
    21    11    13   ar
    22     4     5    1
    23     5     6    1
    24    19    20    1
    25    20    21    1
    26    26    27   ar
    27    27    28   ar
    28    28    23   ar
    29    21    16    1
    30     6     1    1
    31    13     7   ar
