@<TRIPOS>MOLECULE
*****
 40 46 0 0 0
SMALL
GASTEIGER

@<TRIPOS>ATOM
      1 C         137.7641  139.4298  162.1019 C.3     1  UNL1        0.0700
      2 C         137.5958  140.5348  163.1022 C.3     1  UNL1        0.0193
      3 C         138.2122  140.4136  164.4644 C.3     1  UNL1        0.0287
      4 C         138.9969  139.1874  164.8262 C.3     1  UNL1        0.0955
      5 C         139.1651  138.0824  163.8259 C.3     1  UNL1        0.0287
      6 C         138.5487  138.2036  162.4637 C.3     1  UNL1        0.0193
      7 O         138.6777  139.2085  164.0675 O.3     1  UNL1       -0.3571
      8 C         138.1203  139.3181  162.8359 C.3     1  UNL1        0.1562
      9 N         137.1477  139.5509  160.7398 N.3     1  UNL1       -0.2926
     10 H         137.0206  138.6017  160.3886 H       1  UNL1        0.1236
     11 C         137.8537  140.3201  159.6629 C.3     1  UNL1        0.1159
     12 C         139.9570  141.6772  160.3595 C.ar    1  UNL1        0.1202
     13 C         139.3453  140.4736  159.7058 C.ar    1  UNL1        0.0877
     14 N         140.2251  139.4235  159.0949 N.ar    1  UNL1       -0.2427
     15 C         141.7166  139.5770  159.1378 C.ar    1  UNL1        0.1384
     16 C         142.3283  140.7805  159.7915 C.ar    1  UNL1        0.1921
     17 C         141.4485  141.8306  160.4023 C.ar    1  UNL1        0.1846
     18 O         142.0601  143.0342  161.0560 O.3     1  UNL1       -0.4676
     19 C         143.5516  143.1876  161.0989 C.3     1  UNL1        0.2527
     20 C         144.4314  142.1376  160.4881 C.3     1  UNL1        0.2527
     21 O         143.8198  140.9339  159.8343 O.3     1  UNL1       -0.4668
     22 N         138.1972  143.7774  161.5813 N.1     1  UNL1       -0.1907
     23 C         139.0771  142.7273  160.9703 C.1     1  UNL1        0.1048
     24 C         139.6133  139.0662  166.1883 C.3     1  UNL1        0.0604
     25 C         140.7353  139.9781  166.5876 C.3     1  UNL1        0.1335
     26 O         141.2760  139.6505  165.2273 O.3     1  UNL1       -0.3806
     27 C         141.9704  140.8215  166.7025 C.3     1  UNL1        0.1402
     28 N         141.9586  141.4797  168.0504 N.ar    1  UNL1       -0.2915
     29 C         142.9185  142.4202  168.7165 C.ar    1  UNL1        0.2611
     30 O         144.1610  142.8568  167.9984 O.2     1  UNL1       -0.2670
     31 C         142.6361  142.9241  170.1008 C.ar    1  UNL1        0.0623
     32 C         141.3936  142.4875  170.8189 C.ar    1  UNL1        0.0254
     33 C         140.4336  141.5470  170.1527 C.ar    1  UNL1        0.0972
     34 N         139.1324  140.9512  170.6241 N.ar    1  UNL1       -0.2400
     35 C         138.2697  140.0118  169.8347 C.ar    1  UNL1        0.1282
     36 C         138.6836  139.5937  168.4548 C.ar    1  UNL1        0.1588
     37 F         137.8208  138.6543  167.6654 F       1  UNL1       -0.2027
     38 C         139.9601  140.1151  167.8644 C.ar    1  UNL1        0.0500
     39 C         140.7161  141.0431  168.7684 C.ar    1  UNL1        0.0806
     40 H         142.1151  140.1179  165.0917 H       1  UNL1        0.2108
@<TRIPOS>BOND
     1    22    23    3
     2    23    12    1
     3    12    13   ar
     4    13    11    1
     5    11     9    1
     6     9     1    1
     7     1     2    1
     8     2     3    1
     9     3     4    1
    10     4    24    1
    11    24    25    1
    12    25    26    1
    13    25    27    1
    14    27    28    1
    15    28    29   ar
    16    29    30    2
    17    29    31   ar
    18    31    32   ar
    19    32    33   ar
    20    33    34   ar
    21    34    35   ar
    22    35    36   ar
    23    36    37    1
    24    36    38   ar
    25    38    39   ar
    26     4     5    1
    27     5     6    1
    28     4     7    1
    29     7     8    1
    30    13    14   ar
    31    14    15   ar
    32    15    16   ar
    33    16    17   ar
    34    17    18    1
    35    18    19    1
    36    19    20    1
    37    20    21    1
    38    17    12   ar
    39     6     1    1
    40    21    16    1
    41     8     1    1
    42    38    25    1
    43    39    28   ar
    44    39    33   ar
    45     9    10    1
    46    26    40    1
@<TRIPOS>MOLECULE
*****
 40 46 0 0 0
SMALL
GASTEIGER

@<TRIPOS>ATOM
      1 C         137.7646  139.5894  162.1100 C.3     1  UNL1        0.0700
      2 C         137.5981  140.6684  163.1385 C.3     1  UNL1        0.0193
      3 C         138.1910  140.4991  164.5059 C.3     1  UNL1        0.0287
      4 C         138.9503  139.2505  164.8448 C.3     1  UNL1        0.0955
      5 C         139.1167  138.1715  163.8163 C.3     1  UNL1        0.0287
      6 C         138.5239  138.3409  162.4489 C.3     1  UNL1        0.0193
      7 O         138.6434  139.2982  164.0822 O.3     1  UNL1       -0.3571
      8 C         138.1074  139.4513  162.8458 C.3     1  UNL1        0.1562
      9 N         137.1717  139.7587  160.7425 N.3     1  UNL1       -0.2926
     10 H         137.1000  138.8264  160.3351 H       1  UNL1        0.1236
     11 C         137.8607  140.6227  159.7282 C.3     1  UNL1        0.1159
     12 C         140.3663  141.1023  160.2205 C.ar    1  UNL1        0.1202
     13 C         138.9420  141.5687  160.1594 C.ar    1  UNL1        0.0877
     14 N         138.5989  142.9813  160.5294 N.ar    1  UNL1       -0.2427
     15 C         139.6801  143.9274  160.9606 C.ar    1  UNL1        0.1384
     16 C         141.1044  143.4609  161.0217 C.ar    1  UNL1        0.1921
     17 C         141.4475  142.0484  160.6516 C.ar    1  UNL1        0.1846
     18 O         142.8717  141.5819  160.7127 O.3     1  UNL1       -0.4676
     19 C         143.9530  142.5280  161.1438 C.3     1  UNL1        0.2527
     20 C         143.6099  143.9405  161.5139 C.3     1  UNL1        0.2527
     21 O         142.1856  144.4070  161.4528 O.3     1  UNL1       -0.4668
     22 N         141.0525  138.2771  159.4802 N.1     1  UNL1       -0.1907
     23 C         140.7094  139.6897  159.8504 C.1     1  UNL1        0.1048
     24 C         139.5431  139.0812  166.2122 C.3     1  UNL1        0.0604
     25 C         140.6642  139.9719  166.6593 C.3     1  UNL1        0.1335
     26 O         141.2345  139.6696  165.3053 O.3     1  UNL1       -0.3806
     27 C         141.9045  140.7994  166.8232 C.3     1  UNL1        0.1402
     28 N         141.8664  141.4270  168.1851 N.ar    1  UNL1       -0.2915
     29 C         142.8192  142.3420  168.8957 C.ar    1  UNL1        0.2611
     30 O         144.0831  142.7816  168.2179 O.2     1  UNL1       -0.2670
     31 C         142.5082  142.8172  170.2839 C.ar    1  UNL1        0.0623
     32 C         141.2443  142.3775  170.9617 C.ar    1  UNL1        0.0254
     33 C         140.2915  141.4626  170.2511 C.ar    1  UNL1        0.0972
     34 N         138.9733  140.8699  170.6772 N.ar    1  UNL1       -0.2400
     35 C         138.1208  139.9577  169.8459 C.ar    1  UNL1        0.1282
     36 C         138.5639  139.5668  168.4672 C.ar    1  UNL1        0.1588
     37 F         137.7113  138.6547  167.6359 F       1  UNL1       -0.2027
     38 C         139.8596  140.0880  167.9198 C.ar    1  UNL1        0.0500
     39 C         140.6025  140.9873  168.8629 C.ar    1  UNL1        0.0806
     40 H         142.0813  140.1311  165.2007 H       1  UNL1        0.2108
@<TRIPOS>BOND
     1    22    23    3
     2    23    12    1
     3    12    13   ar
     4    13    11    1
     5    11     9    1
     6     9     1    1
     7     1     2    1
     8     2     3    1
     9     3     4    1
    10     4    24    1
    11    24    25    1
    12    25    26    1
    13    25    27    1
    14    27    28    1
    15    28    29   ar
    16    29    30    2
    17    29    31   ar
    18    31    32   ar
    19    32    33   ar
    20    33    34   ar
    21    34    35   ar
    22    35    36   ar
    23    36    37    1
    24    36    38   ar
    25    38    39   ar
    26     4     5    1
    27     5     6    1
    28     4     7    1
    29     7     8    1
    30    13    14   ar
    31    14    15   ar
    32    15    16   ar
    33    16    17   ar
    34    17    18    1
    35    18    19    1
    36    19    20    1
    37    20    21    1
    38    17    12   ar
    39     6     1    1
    40    21    16    1
    41     8     1    1
    42    38    25    1
    43    39    28   ar
    44    39    33   ar
    45     9    10    1
    46    26    40    1
@<TRIPOS>MOLECULE
*****
 40 46 0 0 0
SMALL
GASTEIGER

@<TRIPOS>ATOM
      1 C         137.6561  139.4507  161.4221 C.3     1  UNL1        0.0700
      2 C         138.2936  138.1246  161.7137 C.3     1  UNL1        0.0193
      3 C         139.1516  137.9567  162.9326 C.3     1  UNL1        0.0287
      4 C         139.3720  139.1150  163.8600 C.3     1  UNL1        0.0955
      5 C         138.7345  140.4411  163.5683 C.3     1  UNL1        0.0287
      6 C         137.8766  140.6089  162.3494 C.3     1  UNL1        0.0193
      7 O         138.8939  139.2552  163.2045 O.3     1  UNL1       -0.3571
      8 C         138.1181  139.4070  162.1023 C.3     1  UNL1        0.1562
      9 N         136.7982  139.6186  160.2031 N.3     1  UNL1       -0.2926
     10 H         136.4845  138.6863  159.9331 H       1  UNL1        0.1236
     11 C         137.3638  140.2591  158.9704 C.3     1  UNL1        0.1159
     12 C         139.8128  141.1263  158.9468 C.ar    1  UNL1        0.1202
     13 C         138.8085  140.0618  158.6182 C.ar    1  UNL1        0.0877
     14 N         139.2488  138.7998  157.9374 N.ar    1  UNL1       -0.2427
     15 C         140.6935  138.6024  157.5851 C.ar    1  UNL1        0.1384
     16 C         141.6978  139.6670  157.9137 C.ar    1  UNL1        0.1921
     17 C         141.2575  140.9290  158.5945 C.ar    1  UNL1        0.1846
     18 O         142.2617  141.9936  158.9231 O.3     1  UNL1       -0.4676
     19 C         143.7063  141.7962  158.5709 C.3     1  UNL1        0.2527
     20 C         144.1467  140.5343  157.8901 C.3     1  UNL1        0.2527
     21 O         143.1424  139.4696  157.5614 O.3     1  UNL1       -0.4668
     22 N         138.9321  143.6504  160.3084 N.1     1  UNL1       -0.1907
     23 C         139.3725  142.3883  159.6276 C.1     1  UNL1        0.1048
     24 C         140.2300  138.9472  165.0789 C.3     1  UNL1        0.0604
     25 C         139.7451  139.4381  166.4107 C.3     1  UNL1        0.1335
     26 O         138.5998  138.5019  166.1623 O.3     1  UNL1       -0.3806
     27 C         139.0209  139.7334  167.6907 C.3     1  UNL1        0.1402
     28 N         139.8199  140.7495  168.4517 N.ar    1  UNL1       -0.2915
     29 C         139.5957  141.4147  169.7772 C.ar    1  UNL1        0.2611
     30 O         138.3776  141.0820  170.5868 O.2     1  UNL1       -0.2670
     31 C         140.5896  142.4126  170.2932 C.ar    1  UNL1        0.0623
     32 C         141.8078  142.7453  169.4836 C.ar    1  UNL1        0.0254
     33 C         142.0320  142.0801  168.1580 C.ar    1  UNL1        0.0972
     34 N         143.1429  142.2165  167.1492 N.ar    1  UNL1       -0.2400
     35 C         143.2324  141.4746  165.8487 C.ar    1  UNL1        0.1282
     36 C         142.1568  140.5022  165.4644 C.ar    1  UNL1        0.1588
     37 F         142.2463  139.7603  164.1638 F       1  UNL1       -0.2027
     38 C         140.9918  140.2717  166.3807 C.ar    1  UNL1        0.0500
     39 C         141.0381  141.0822  167.6421 C.ar    1  UNL1        0.0806
     40 H         137.9823  138.5412  166.9094 H       1  UNL1        0.2108
@<TRIPOS>BOND
     1    22    23    3
     2    23    12    1
     3    12    13   ar
     4    13    11    1
     5    11     9    1
     6     9     1    1
     7     1     2    1
     8     2     3    1
     9     3     4    1
    10     4    24    1
    11    24    25    1
    12    25    26    1
    13    25    27    1
    14    27    28    1
    15    28    29   ar
    16    29    30    2
    17    29    31   ar
    18    31    32   ar
    19    32    33   ar
    20    33    34   ar
    21    34    35   ar
    22    35    36   ar
    23    36    37    1
    24    36    38   ar
    25    38    39   ar
    26     4     5    1
    27     5     6    1
    28     4     7    1
    29     7     8    1
    30    13    14   ar
    31    14    15   ar
    32    15    16   ar
    33    16    17   ar
    34    17    18    1
    35    18    19    1
    36    19    20    1
    37    20    21    1
    38    17    12   ar
    39     6     1    1
    40    21    16    1
    41     8     1    1
    42    38    25    1
    43    39    28   ar
    44    39    33   ar
    45     9    10    1
    46    26    40    1
@<TRIPOS>MOLECULE
*****
 40 46 0 0 0
SMALL
GASTEIGER

@<TRIPOS>ATOM
      1 C         144.5810  142.7038  161.7849 C.3     1  UNL1        0.0700
      2 C         144.3179  142.3112  160.3613 C.3     1  UNL1        0.0193
      3 C         143.1379  142.8817  159.6318 C.3     1  UNL1        0.0287
      4 C         142.2209  143.8448  160.3259 C.3     1  UNL1        0.0955
      5 C         142.4840  144.2374  161.7495 C.3     1  UNL1        0.0287
      6 C         143.6641  143.6668  162.4790 C.3     1  UNL1        0.0193
      7 O         142.8548  143.5586  160.7667 O.3     1  UNL1       -0.3571
      8 C         143.9217  143.0427  161.4263 C.3     1  UNL1        0.1562
      9 N         145.7610  142.1333  162.5144 N.3     1  UNL1       -0.2926
     10 H         146.3773  141.7309  161.8083 H       1  UNL1        0.1236
     11 C         145.5570  141.0797  163.5623 C.3     1  UNL1        0.1159
     12 C         143.2318  140.3483  164.4618 C.ar    1  UNL1        0.1202
     13 C         144.3634  140.1738  163.4927 C.ar    1  UNL1        0.0877
     14 N         144.3014  139.0934  162.4540 N.ar    1  UNL1       -0.2427
     15 C         143.1079  138.1875  162.3844 C.ar    1  UNL1        0.1384
     16 C         141.9763  138.3620  163.3535 C.ar    1  UNL1        0.1921
     17 C         142.0383  139.4424  164.3922 C.ar    1  UNL1        0.1846
     18 O         140.9068  139.6170  165.3613 O.3     1  UNL1       -0.4676
     19 C         139.7133  138.7111  165.2916 C.3     1  UNL1        0.2527
     20 C         139.6512  137.6307  164.2530 C.3     1  UNL1        0.2527
     21 O         140.7828  137.4561  163.2838 O.3     1  UNL1       -0.4668
     22 N         143.3558  142.5091  166.5392 N.1     1  UNL1       -0.1907
     23 C         143.2938  141.4287  165.5005 C.1     1  UNL1        0.1048
     24 C         141.0409  144.4153  159.5964 C.3     1  UNL1        0.0604
     25 C         139.9689  143.5044  159.0760 C.3     1  UNL1        0.1335
     26 O         140.1652  142.7872  160.3787 O.3     1  UNL1       -0.3806
     27 C         138.9379  142.4435  158.8278 C.3     1  UNL1        0.1402
     28 N         138.3284  142.6955  157.4806 N.ar    1  UNL1       -0.2915
     29 C         137.2622  141.9743  156.7106 C.ar    1  UNL1        0.2611
     30 O         136.6078  140.7577  157.2951 O.2     1  UNL1       -0.2670
     31 C         136.8503  142.4698  155.3560 C.ar    1  UNL1        0.0623
     32 C         137.5046  143.6864  154.7715 C.ar    1  UNL1        0.0254
     33 C         138.5709  144.4076  155.5415 C.ar    1  UNL1        0.0972
     34 N         139.3851  145.6314  155.2102 N.ar    1  UNL1       -0.2400
     35 C         140.4308  146.2453  156.0930 C.ar    1  UNL1        0.1282
     36 C         140.7366  145.6356  157.4290 C.ar    1  UNL1        0.1588
     37 F         141.7824  146.2495  158.3118 F       1  UNL1       -0.2027
     38 C         139.9966  144.4120  157.8821 C.ar    1  UNL1        0.0500
     39 C         138.9828  143.9121  156.8961 C.ar    1  UNL1        0.0806
     40 H         139.5629  142.0282  160.4239 H       1  UNL1        0.2108
@<TRIPOS>BOND
     1    22    23    3
     2    23    12    1
     3    12    13   ar
     4    13    11    1
     5    11     9    1
     6     9     1    1
     7     1     2    1
     8     2     3    1
     9     3     4    1
    10     4    24    1
    11    24    25    1
    12    25    26    1
    13    25    27    1
    14    27    28    1
    15    28    29   ar
    16    29    30    2
    17    29    31   ar
    18    31    32   ar
    19    32    33   ar
    20    33    34   ar
    21    34    35   ar
    22    35    36   ar
    23    36    37    1
    24    36    38   ar
    25    38    39   ar
    26     4     5    1
    27     5     6    1
    28     4     7    1
    29     7     8    1
    30    13    14   ar
    31    14    15   ar
    32    15    16   ar
    33    16    17   ar
    34    17    18    1
    35    18    19    1
    36    19    20    1
    37    20    21    1
    38    17    12   ar
    39     6     1    1
    40    21    16    1
    41     8     1    1
    42    38    25    1
    43    39    28   ar
    44    39    33   ar
    45     9    10    1
    46    26    40    1
@<TRIPOS>MOLECULE
*****
 40 46 0 0 0
SMALL
GASTEIGER

@<TRIPOS>ATOM
      1 C         141.8773  144.3851  161.7400 C.3     1  UNL1        0.0700
      2 C         140.7830  144.1847  162.7461 C.3     1  UNL1        0.0193
      3 C         140.9500  143.1778  163.8454 C.3     1  UNL1        0.0287
      4 C         142.2114  142.3713  163.9384 C.3     1  UNL1        0.0955
      5 C         143.3057  142.5717  162.9323 C.3     1  UNL1        0.0287
      6 C         143.1386  143.5787  161.8331 C.3     1  UNL1        0.0193
      7 O         142.1656  142.9112  163.3184 O.3     1  UNL1       -0.3571
      8 C         142.0146  143.8216  162.3246 C.3     1  UNL1        0.1562
      9 N         141.7103  145.3920  160.6408 N.3     1  UNL1       -0.2926
     10 H         141.0252  146.0735  160.9673 H       1  UNL1        0.1236
     11 C         141.2647  144.9486  159.2789 C.3     1  UNL1        0.1159
     12 C         141.4932  142.4413  158.6371 C.ar    1  UNL1        0.1202
     13 C         140.6488  143.5931  159.0957 C.ar    1  UNL1        0.0877
     14 N         139.1885  143.3895  159.3712 N.ar    1  UNL1       -0.2427
     15 C         138.5725  142.0342  159.1881 C.ar    1  UNL1        0.1384
     16 C         139.4169  140.8824  158.7294 C.ar    1  UNL1        0.1921
     17 C         140.8772  141.0859  158.4539 C.ar    1  UNL1        0.1846
     18 O         141.7216  139.9342  157.9953 O.3     1  UNL1       -0.4676
     19 C         141.1057  138.5789  157.8121 C.3     1  UNL1        0.2527
     20 C         139.6454  138.3752  158.0876 C.3     1  UNL1        0.2527
     21 O         138.8009  139.5270  158.5463 O.3     1  UNL1       -0.4668
     22 N         144.4140  142.8484  158.0861 N.1     1  UNL1       -0.1907
     23 C         142.9535  142.6449  158.3616 C.1     1  UNL1        0.1048
     24 C         142.3785  141.3644  165.0376 C.3     1  UNL1        0.0604
     25 C         142.5046  141.8215  166.4607 C.3     1  UNL1        0.1335
     26 O         143.6819  142.5936  165.9431 O.3     1  UNL1       -0.3806
     27 C         142.8769  142.4401  167.7755 C.3     1  UNL1        0.1402
     28 N         141.9033  141.9547  168.8083 N.ar    1  UNL1       -0.2915
     29 C         141.7778  142.2305  170.2774 C.ar    1  UNL1        0.2611
     30 O         142.7518  143.1490  170.9539 O.2     1  UNL1       -0.2670
     31 C         140.6783  141.5878  171.0698 C.ar    1  UNL1        0.0623
     32 C         139.7044  140.6693  170.3933 C.ar    1  UNL1        0.0254
     33 C         139.8298  140.3936  168.9242 C.ar    1  UNL1        0.0972
     34 N         139.0116  139.5314  167.9981 N.ar    1  UNL1       -0.2400
     35 C         139.2616  139.3514  166.5301 C.ar    1  UNL1        0.1282
     36 C         140.4062  140.0626  165.8715 C.ar    1  UNL1        0.1588
     37 F         140.6562  139.8826  164.4035 F       1  UNL1       -0.2027
     38 C         141.3010  140.9540  166.6808 C.ar    1  UNL1        0.0500
     39 C         140.9293  141.0363  168.1317 C.ar    1  UNL1        0.0806
     40 H         144.0884  143.0897  166.6707 H       1  UNL1        0.2108
@<TRIPOS>BOND
     1    22    23    3
     2    23    12    1
     3    12    13   ar
     4    13    11    1
     5    11     9    1
     6     9     1    1
     7     1     2    1
     8     2     3    1
     9     3     4    1
    10     4    24    1
    11    24    25    1
    12    25    26    1
    13    25    27    1
    14    27    28    1
    15    28    29   ar
    16    29    30    2
    17    29    31   ar
    18    31    32   ar
    19    32    33   ar
    20    33    34   ar
    21    34    35   ar
    22    35    36   ar
    23    36    37    1
    24    36    38   ar
    25    38    39   ar
    26     4     5    1
    27     5     6    1
    28     4     7    1
    29     7     8    1
    30    13    14   ar
    31    14    15   ar
    32    15    16   ar
    33    16    17   ar
    34    17    18    1
    35    18    19    1
    36    19    20    1
    37    20    21    1
    38    17    12   ar
    39     6     1    1
    40    21    16    1
    41     8     1    1
    42    38    25    1
    43    39    28   ar
    44    39    33   ar
    45     9    10    1
    46    26    40    1
@<TRIPOS>MOLECULE
*****
 40 46 0 0 0
SMALL
GASTEIGER

@<TRIPOS>ATOM
      1 C         144.5338  142.7509  161.9835 C.3     1  UNL1        0.0700
      2 C         144.0824  142.2715  160.6358 C.3     1  UNL1        0.0193
      3 C         142.8600  142.8640  159.9996 C.3     1  UNL1        0.0287
      4 C         142.0890  143.9361  160.7112 C.3     1  UNL1        0.0955
      5 C         142.5403  144.4155  162.0590 C.3     1  UNL1        0.0287
      6 C         143.7627  143.8229  162.6951 C.3     1  UNL1        0.0193
      7 O         142.7525  143.6415  161.0997 O.3     1  UNL1       -0.3571
      8 C         143.8577  143.1058  161.6749 C.3     1  UNL1        0.1562
      9 N         145.7561  142.1584  162.6197 N.3     1  UNL1       -0.2926
     10 H         146.3443  141.8124  161.8615 H       1  UNL1        0.1236
     11 C         145.6192  141.0379  163.6074 C.3     1  UNL1        0.1159
     12 C         143.2963  140.3794  164.5670 C.ar    1  UNL1        0.1202
     13 C         144.4042  140.1585  163.5803 C.ar    1  UNL1        0.0877
     14 N         144.2973  139.0582  162.5665 N.ar    1  UNL1       -0.2427
     15 C         143.0825  138.1788  162.5394 C.ar    1  UNL1        0.1384
     16 C         141.9745  138.3997  163.5260 C.ar    1  UNL1        0.1921
     17 C         142.0814  139.5000  164.5399 C.ar    1  UNL1        0.1846
     18 O         140.9735  139.7210  165.5266 O.3     1  UNL1       -0.4676
     19 C         139.7586  138.8415  165.4994 C.3     1  UNL1        0.2527
     20 C         139.6517  137.7413  164.4857 C.3     1  UNL1        0.2527
     21 O         140.7596  137.5203  163.4989 O.3     1  UNL1       -0.4668
     22 N         143.5100  142.5801  166.5948 N.1     1  UNL1       -0.1907
     23 C         143.4032  141.4797  165.5809 C.1     1  UNL1        0.1048
     24 C         140.8666  144.5286  160.0751 C.3     1  UNL1        0.0604
     25 C         140.9239  145.0282  158.6619 C.3     1  UNL1        0.1335
     26 O         141.9559  145.9722  159.2039 O.3     1  UNL1       -0.3806
     27 C         141.1969  145.7251  157.3620 C.3     1  UNL1        0.1402
     28 N         140.3216  145.1074  156.3120 N.ar    1  UNL1       -0.2915
     29 C         140.1607  145.3879  154.8473 C.ar    1  UNL1        0.2611
     30 O         140.9746  146.4666  154.1963 O.2     1  UNL1       -0.2670
     31 C         139.1857  144.5896  154.0336 C.ar    1  UNL1        0.0623
     32 C         138.3717  143.5108  154.6846 C.ar    1  UNL1        0.0254
     33 C         138.5327  143.2304  156.1493 C.ar    1  UNL1        0.0972
     34 N         137.8618  142.2278  157.0522 N.ar    1  UNL1       -0.2400
     35 C         138.1299  142.0622  158.5187 C.ar    1  UNL1        0.1282
     36 C         139.1389  142.9382  159.2003 C.ar    1  UNL1        0.1588
     37 F         139.4069  142.7726  160.6668 F       1  UNL1       -0.2027
     38 C         139.8799  143.9798  158.4153 C.ar    1  UNL1        0.0500
     39 C         139.5076  144.0287  156.9630 C.ar    1  UNL1        0.0806
     40 H         142.2796  146.5425  158.4891 H       1  UNL1        0.2108
@<TRIPOS>BOND
     1    22    23    3
     2    23    12    1
     3    12    13   ar
     4    13    11    1
     5    11     9    1
     6     9     1    1
     7     1     2    1
     8     2     3    1
     9     3     4    1
    10     4    24    1
    11    24    25    1
    12    25    26    1
    13    25    27    1
    14    27    28    1
    15    28    29   ar
    16    29    30    2
    17    29    31   ar
    18    31    32   ar
    19    32    33   ar
    20    33    34   ar
    21    34    35   ar
    22    35    36   ar
    23    36    37    1
    24    36    38   ar
    25    38    39   ar
    26     4     5    1
    27     5     6    1
    28     4     7    1
    29     7     8    1
    30    13    14   ar
    31    14    15   ar
    32    15    16   ar
    33    16    17   ar
    34    17    18    1
    35    18    19    1
    36    19    20    1
    37    20    21    1
    38    17    12   ar
    39     6     1    1
    40    21    16    1
    41     8     1    1
    42    38    25    1
    43    39    28   ar
    44    39    33   ar
    45     9    10    1
    46    26    40    1
@<TRIPOS>MOLECULE
*****
 40 46 0 0 0
SMALL
GASTEIGER

@<TRIPOS>ATOM
      1 C         142.0206  144.3768  161.7773 C.3     1  UNL1        0.0700
      2 C         143.1893  143.4366  161.7711 C.3     1  UNL1        0.0193
      3 C         143.3575  142.4417  162.8811 C.3     1  UNL1        0.0287
      4 C         142.3568  142.3871  163.9973 C.3     1  UNL1        0.0955
      5 C         141.1880  143.3273  164.0035 C.3     1  UNL1        0.0287
      6 C         141.0200  144.3222  162.8934 C.3     1  UNL1        0.0193
      7 O         142.2226  142.9494  163.4109 O.3     1  UNL1       -0.3571
      8 C         142.0706  143.8489  162.4073 C.3     1  UNL1        0.1562
      9 N         141.8525  145.3716  160.6673 N.3     1  UNL1       -0.2926
     10 H         141.3809  146.1826  161.0677 H       1  UNL1        0.1236
     11 C         141.0911  144.9945  159.4312 C.3     1  UNL1        0.1159
     12 C         140.2883  142.5353  159.1895 C.ar    1  UNL1        0.1202
     13 C         141.2551  143.6268  158.8374 C.ar    1  UNL1        0.0877
     14 N         142.3859  143.3507  157.8914 N.ar    1  UNL1       -0.2427
     15 C         142.5499  141.9830  157.2975 C.ar    1  UNL1        0.1384
     16 C         141.5832  140.8916  157.6496 C.ar    1  UNL1        0.1921
     17 C         140.4523  141.1677  158.5956 C.ar    1  UNL1        0.1846
     18 O         139.4855  140.0763  158.9478 O.3     1  UNL1       -0.4676
     19 C         139.6496  138.7087  158.3539 C.3     1  UNL1        0.2527
     20 C         140.7803  138.4325  157.4079 C.3     1  UNL1        0.2527
     21 O         141.7472  139.5239  157.0557 O.3     1  UNL1       -0.4668
     22 N         138.0265  143.0876  161.0815 N.1     1  UNL1       -0.1907
     23 C         139.1574  142.8115  160.1355 C.1     1  UNL1        0.1048
     24 C         142.5249  141.3923  165.1073 C.3     1  UNL1        0.0604
     25 C         142.6302  141.8637  166.5274 C.3     1  UNL1        0.1335
     26 O         143.8179  142.6268  166.0204 O.3     1  UNL1       -0.3806
     27 C         142.9838  142.4946  167.8415 C.3     1  UNL1        0.1402
     28 N         141.9927  142.0228  168.8638 N.ar    1  UNL1       -0.2915
     29 C         141.8451  142.3140  170.3278 C.ar    1  UNL1        0.2611
     30 O         142.8113  143.2365  171.0101 O.2     1  UNL1       -0.2670
     31 C         140.7314  141.6828  171.1095 C.ar    1  UNL1        0.0623
     32 C         139.7653  140.7603  170.4272 C.ar    1  UNL1        0.0254
     33 C         139.9128  140.4690  168.9632 C.ar    1  UNL1        0.0972
     34 N         139.1065  139.5998  168.0333 N.ar    1  UNL1       -0.2400
     35 C         139.3788  139.4040  166.5713 C.ar    1  UNL1        0.1282
     36 C         140.5358  140.1050  165.9234 C.ar    1  UNL1        0.1588
     37 F         140.8081  139.9091  164.4614 F       1  UNL1       -0.2027
     38 C         141.4206  141.0020  166.7375 C.ar    1  UNL1        0.0500
     39 C         141.0265  141.1003  168.1815 C.ar    1  UNL1        0.0806
     40 H         144.2145  143.1292  166.7492 H       1  UNL1        0.2108
@<TRIPOS>BOND
     1    22    23    3
     2    23    12    1
     3    12    13   ar
     4    13    11    1
     5    11     9    1
     6     9     1    1
     7     1     2    1
     8     2     3    1
     9     3     4    1
    10     4    24    1
    11    24    25    1
    12    25    26    1
    13    25    27    1
    14    27    28    1
    15    28    29   ar
    16    29    30    2
    17    29    31   ar
    18    31    32   ar
    19    32    33   ar
    20    33    34   ar
    21    34    35   ar
    22    35    36   ar
    23    36    37    1
    24    36    38   ar
    25    38    39   ar
    26     4     5    1
    27     5     6    1
    28     4     7    1
    29     7     8    1
    30    13    14   ar
    31    14    15   ar
    32    15    16   ar
    33    16    17   ar
    34    17    18    1
    35    18    19    1
    36    19    20    1
    37    20    21    1
    38    17    12   ar
    39     6     1    1
    40    21    16    1
    41     8     1    1
    42    38    25    1
    43    39    28   ar
    44    39    33   ar
    45     9    10    1
    46    26    40    1
@<TRIPOS>MOLECULE
*****
 40 46 0 0 0
SMALL
GASTEIGER

@<TRIPOS>ATOM
      1 C         137.7035  139.6213  161.1755 C.3     1  UNL1        0.0700
      2 C         138.4683  138.3434  161.3541 C.3     1  UNL1        0.0193
      3 C         139.3064  138.1361  162.5807 C.3     1  UNL1        0.0287
      4 C         139.3798  139.2068  163.6287 C.3     1  UNL1        0.0955
      5 C         138.6150  140.4848  163.4501 C.3     1  UNL1        0.0287
      6 C         137.7768  140.6920  162.2235 C.3     1  UNL1        0.0193
      7 O         138.9071  139.3660  162.9736 O.3     1  UNL1       -0.3571
      8 C         138.1493  139.5534  161.8645 C.3     1  UNL1        0.1562
      9 N         136.8653  139.8286  159.9489 N.3     1  UNL1       -0.2926
     10 H         136.6031  138.9025  159.6114 H       1  UNL1        0.1236
     11 C         137.4262  140.5746  158.7746 C.3     1  UNL1        0.1159
     12 C         140.0148  140.6671  158.5726 C.ar    1  UNL1        0.1202
     13 C         138.7138  141.3317  158.9125 C.ar    1  UNL1        0.0877
     14 N         138.7003  142.7534  159.3904 N.ar    1  UNL1       -0.2427
     15 C         139.9878  143.5106  159.5283 C.ar    1  UNL1        0.1384
     16 C         141.2888  142.8460  159.1884 C.ar    1  UNL1        0.1921
     17 C         141.3023  141.4242  158.7105 C.ar    1  UNL1        0.1846
     18 O         142.6033  140.7596  158.3705 O.3     1  UNL1       -0.4676
     19 C         143.8908  141.5167  158.5085 C.3     1  UNL1        0.2527
     20 C         143.8774  142.9384  158.9863 C.3     1  UNL1        0.2527
     21 O         142.5763  143.6032  159.3263 O.3     1  UNL1       -0.4668
     22 N         140.0419  137.8235  157.6168 N.1     1  UNL1       -0.1907
     23 C         140.0283  139.2453  158.0947 C.1     1  UNL1        0.1048
     24 C         140.2179  138.9995  164.8553 C.3     1  UNL1        0.0604
     25 C         139.6427  139.2773  166.2125 C.3     1  UNL1        0.1335
     26 O         138.6011  138.2790  165.8021 O.3     1  UNL1       -0.3806
     27 C         138.8498  139.3464  167.4839 C.3     1  UNL1        0.1402
     28 N         139.5215  140.3294  168.3964 N.ar    1  UNL1       -0.2915
     29 C         139.1892  140.8037  169.7800 C.ar    1  UNL1        0.2611
     30 O         137.9811  140.2653  170.4875 O.2     1  UNL1       -0.2670
     31 C         140.0650  141.8164  170.4562 C.ar    1  UNL1        0.0623
     32 C         141.2732  142.3549  169.7487 C.ar    1  UNL1        0.0254
     33 C         141.6055  141.8805  168.3650 C.ar    1  UNL1        0.0972
     34 N         142.7325  142.2397  167.4317 N.ar    1  UNL1       -0.2400
     35 C         142.9373  141.6744  166.0575 C.ar    1  UNL1        0.1282
     36 C         141.9733  140.6633  165.5113 C.ar    1  UNL1        0.1588
     37 F         142.1780  140.0979  164.1371 F       1  UNL1       -0.2027
     38 C         140.8045  140.2176  166.3392 C.ar    1  UNL1        0.0500
     39 C         140.7297  140.8678  167.6889 C.ar    1  UNL1        0.0806
     40 H         137.9573  138.1701  166.5194 H       1  UNL1        0.2108
@<TRIPOS>BOND
     1    22    23    3
     2    23    12    1
     3    12    13   ar
     4    13    11    1
     5    11     9    1
     6     9     1    1
     7     1     2    1
     8     2     3    1
     9     3     4    1
    10     4    24    1
    11    24    25    1
    12    25    26    1
    13    25    27    1
    14    27    28    1
    15    28    29   ar
    16    29    30    2
    17    29    31   ar
    18    31    32   ar
    19    32    33   ar
    20    33    34   ar
    21    34    35   ar
    22    35    36   ar
    23    36    37    1
    24    36    38   ar
    25    38    39   ar
    26     4     5    1
    27     5     6    1
    28     4     7    1
    29     7     8    1
    30    13    14   ar
    31    14    15   ar
    32    15    16   ar
    33    16    17   ar
    34    17    18    1
    35    18    19    1
    36    19    20    1
    37    20    21    1
    38    17    12   ar
    39     6     1    1
    40    21    16    1
    41     8     1    1
    42    38    25    1
    43    39    28   ar
    44    39    33   ar
    45     9    10    1
    46    26    40    1
@<TRIPOS>MOLECULE
*****
 40 46 0 0 0
SMALL
GASTEIGER

@<TRIPOS>ATOM
      1 C         139.0138  139.4090  160.6724 C.3     1  UNL1        0.0700
      2 C         139.4819  138.0739  161.1708 C.3     1  UNL1        0.0193
      3 C         140.1850  137.9708  162.4918 C.3     1  UNL1        0.0287
      4 C         140.4201  139.2030  163.3144 C.3     1  UNL1        0.0955
      5 C         139.9521  140.5381  162.8161 C.3     1  UNL1        0.0287
      6 C         139.2490  140.6411  161.4951 C.3     1  UNL1        0.0193
      7 O         140.0304  139.3093  162.5970 O.3     1  UNL1       -0.3571
      8 C         139.3946  139.4025  161.4026 C.3     1  UNL1        0.1562
      9 N         138.3107  139.5121  159.3515 N.3     1  UNL1       -0.2926
     10 H         137.8390  138.6208  159.1986 H       1  UNL1        0.1236
     11 C         139.0934  139.8069  158.1063 C.3     1  UNL1        0.1159
     12 C         141.0706  138.2189  157.5412 C.ar    1  UNL1        0.1202
     13 C         139.6651  138.6816  157.2957 C.ar    1  UNL1        0.0877
     14 N         138.8310  138.0190  156.2396 N.ar    1  UNL1       -0.2427
     15 C         139.4026  136.8937  155.4290 C.ar    1  UNL1        0.1384
     16 C         140.8082  136.4310  155.6745 C.ar    1  UNL1        0.1921
     17 C         141.6422  137.0936  156.7306 C.ar    1  UNL1        0.1846
     18 O         143.0477  136.6310  156.9762 O.3     1  UNL1       -0.4676
     19 C         143.6193  135.5058  156.1656 C.3     1  UNL1        0.2527
     20 C         142.7854  134.8431  155.1095 C.3     1  UNL1        0.2527
     21 O         141.3797  135.3058  154.8639 O.3     1  UNL1       -0.4668
     22 N         142.7387  139.5442  159.6534 N.1     1  UNL1       -0.1907
     23 C         141.9046  138.8815  158.5973 C.1     1  UNL1        0.1048
     24 C         141.1233  139.0999  164.6354 C.3     1  UNL1        0.0604
     25 C         140.3482  139.2474  165.9112 C.3     1  UNL1        0.1335
     26 O         139.4781  138.1771  165.3220 O.3     1  UNL1       -0.3806
     27 C         139.3912  139.1712  167.0637 C.3     1  UNL1        0.1402
     28 N         139.8319  140.1636  168.0986 N.ar    1  UNL1       -0.2915
     29 C         139.2727  140.5285  169.4417 C.ar    1  UNL1        0.2611
     30 O         138.0433  139.8389  169.9547 O.2     1  UNL1       -0.2670
     31 C         139.9427  141.5829  170.2718 C.ar    1  UNL1        0.0623
     32 C         141.1721  142.2725  169.7588 C.ar    1  UNL1        0.0254
     33 C         141.7314  141.9076  168.4157 C.ar    1  UNL1        0.0972
     34 N         142.9291  142.4234  167.6608 N.ar    1  UNL1       -0.2400
     35 C         143.3707  141.9553  166.3059 C.ar    1  UNL1        0.1282
     36 C         142.5963  140.8871  165.5923 C.ar    1  UNL1        0.1588
     37 F         143.0379  140.4190  164.2374 F       1  UNL1       -0.2027
     38 C         141.3803  140.2870  166.2337 C.ar    1  UNL1        0.0500
     39 C         141.0613  140.8532  167.5856 C.ar    1  UNL1        0.0806
     40 H         138.7596  137.9682  165.9393 H       1  UNL1        0.2108
@<TRIPOS>BOND
     1    22    23    3
     2    23    12    1
     3    12    13   ar
     4    13    11    1
     5    11     9    1
     6     9     1    1
     7     1     2    1
     8     2     3    1
     9     3     4    1
    10     4    24    1
    11    24    25    1
    12    25    26    1
    13    25    27    1
    14    27    28    1
    15    28    29   ar
    16    29    30    2
    17    29    31   ar
    18    31    32   ar
    19    32    33   ar
    20    33    34   ar
    21    34    35   ar
    22    35    36   ar
    23    36    37    1
    24    36    38   ar
    25    38    39   ar
    26     4     5    1
    27     5     6    1
    28     4     7    1
    29     7     8    1
    30    13    14   ar
    31    14    15   ar
    32    15    16   ar
    33    16    17   ar
    34    17    18    1
    35    18    19    1
    36    19    20    1
    37    20    21    1
    38    17    12   ar
    39     6     1    1
    40    21    16    1
    41     8     1    1
    42    38    25    1
    43    39    28   ar
    44    39    33   ar
    45     9    10    1
    46    26    40    1
