@<TRIPOS>MOLECULE
*****
 38 41 0 0 0
SMALL
GASTEIGER

@<TRIPOS>ATOM
      1 C         144.6358  139.4979  155.7767 C.3     1  UNL1        0.1027
      2 C         145.6503  139.9407  154.7644 C.3     1  UNL1        0.0819
      3 N         146.2294  141.2444  155.2284 N.3     1  UNL1       -0.2670
      4 C         145.5727  141.6072  156.5274 C.3     1  UNL1        0.0819
      5 C         144.5878  140.5277  156.8662 C.3     1  UNL1        0.1026
      6 O         142.3232  138.3171  155.8641 O.2     1  UNL1       -0.2747
      7 C         143.8136  138.2450  155.7108 C.2     1  UNL1        0.2286
      8 N         144.4818  136.9200  155.4917 N.am    1  UNL1       -0.2693
      9 H         145.4600  136.8727  155.3911 H       1  UNL1        0.1563
     10 C         143.6596  135.6671  155.4259 C.ar    1  UNL1        0.1342
     11 C         142.8048  135.3933  154.2241 C.ar    1  UNL1        0.0354
     12 C         141.9826  134.1404  154.1583 C.ar    1  UNL1        0.0158
     13 C         142.0153  133.1614  155.2943 C.ar    1  UNL1        0.0769
     14 CL        141.1931  131.9085  155.2285 Cl      1  UNL1       -0.0806
     15 C         142.8701  133.4353  156.4961 C.ar    1  UNL1        0.1116
     16 N         143.6922  134.6881  156.5619 N.ar    1  UNL1       -0.2281
     17 C         143.7092  140.4855  158.0811 C.2     1  UNL1        0.2276
     18 O         143.1025  141.7503  158.6124 O.2     1  UNL1       -0.2747
     19 N         143.4372  139.1784  158.7649 N.am    1  UNL1       -0.2821
     20 H         143.8353  138.3483  158.4163 H       1  UNL1        0.1549
     21 C         142.5585  139.1361  159.9799 C.ar    1  UNL1        0.0782
     22 C         141.1117  138.7636  159.8465 C.ar    1  UNL1        0.0184
     23 C         140.2330  138.7212  161.0615 C.ar    1  UNL1        0.0190
     24 C         140.8012  139.0514  162.4098 C.ar    1  UNL1        0.0692
     25 C         142.2481  139.4239  162.5432 C.ar    1  UNL1        0.0485
     26 C         143.1268  139.4663  161.3283 C.ar    1  UNL1        0.1549
     27 F         144.5736  139.8388  161.4617 F       1  UNL1       -0.2028
     28 N         139.9226  139.0091  163.6248 N.ar    1  UNL1       -0.2731
     29 C         139.6292  137.6985  164.2929 C.ar    1  UNL1        0.0829
     30 C         138.7506  137.6561  165.5079 C.ar    1  UNL1        0.0192
     31 C         138.1653  138.9243  166.0549 C.ar    1  UNL1        0.0064
     32 C         138.4587  140.2349  165.3868 C.ar    1  UNL1        0.0611
     33 C         139.3373  140.2773  164.1718 C.ar    1  UNL1        0.2648
     34 O         139.6308  141.5879  163.5037 O.2     1  UNL1       -0.2666
     35 C         147.2806  142.0448  154.5182 C.3     1  UNL1        0.1453
     36 C         148.6927  142.0449  155.0242 C.3     1  UNL1        0.3343
     37 F         149.8369  142.0277  154.0544 F       1  UNL1       -0.1969
     38 F         148.9604  142.0623  156.5000 F       1  UNL1       -0.1969
@<TRIPOS>BOND
     1     6     7    2
     2     7     8   am
     3     8    10    1
     4    10    11   ar
     5    11    12   ar
     6    12    13   ar
     7    13    14    1
     8    13    15   ar
     9    15    16   ar
    10     1     7    1
    11     1     2    1
    12     2     3    1
    13     3    35    1
    14    35    36    1
    15    36    37    1
    16    36    38    1
    17     3     4    1
    18     4     5    1
    19     5    17    1
    20    17    18    2
    21    17    19   am
    22    19    21    1
    23    21    22   ar
    24    22    23   ar
    25    23    24   ar
    26    24    28    1
    27    28    29   ar
    28    29    30   ar
    29    30    31   ar
    30    31    32   ar
    31    32    33   ar
    32    33    34    2
    33    24    25   ar
    34    25    26   ar
    35    26    27    1
    36    16    10   ar
    37     5     1    1
    38    26    21   ar
    39    33    28   ar
    40     8     9    1
    41    19    20    1
@<TRIPOS>MOLECULE
*****
 38 41 0 0 0
SMALL
GASTEIGER

@<TRIPOS>ATOM
      1 C         143.7017  137.6056  156.0568 C.3     1  UNL1        0.1027
      2 C         143.8901  136.2992  155.3441 C.3     1  UNL1        0.0819
      3 N         143.2781  135.2192  156.1863 N.3     1  UNL1       -0.2670
      4 C         142.7116  135.8582  157.4195 C.3     1  UNL1        0.0819
      5 C         142.9734  137.3330  157.3395 C.3     1  UNL1        0.1026
      6 O         143.1813  139.8942  154.9425 O.2     1  UNL1       -0.2747
      7 C         144.1611  138.9487  155.5719 C.2     1  UNL1        0.2286
      8 N         145.6002  139.3463  155.7164 N.am    1  UNL1       -0.2693
      9 H         146.2432  138.7258  156.1296 H       1  UNL1        0.1563
     10 C         146.0595  140.6895  155.2316 C.ar    1  UNL1        0.1342
     11 C         146.4777  141.7399  156.2172 C.ar    1  UNL1        0.0354
     12 C         146.9370  143.0829  155.7323 C.ar    1  UNL1        0.0158
     13 C         146.9782  143.3755  154.2617 C.ar    1  UNL1        0.0769
     14 CL        147.4376  144.7187  153.7768 Cl      1  UNL1       -0.0806
     15 C         146.5600  142.3251  153.2760 C.ar    1  UNL1        0.1116
     16 N         146.1007  140.9820  153.7609 N.ar    1  UNL1       -0.2281
     17 C         142.5765  138.3558  158.3624 C.2     1  UNL1        0.2276
     18 O         143.6301  139.1392  159.0877 O.2     1  UNL1       -0.2747
     19 N         141.1259  138.5952  158.6601 N.am    1  UNL1       -0.2821
     20 H         140.4344  138.0810  158.1840 H       1  UNL1        0.1549
     21 C         140.7290  139.6179  159.6830 C.ar    1  UNL1        0.0782
     22 C         140.3280  140.9965  159.2488 C.ar    1  UNL1        0.0184
     23 C         139.9311  142.0193  160.2717 C.ar    1  UNL1        0.0190
     24 C         139.9350  141.6634  161.7288 C.ar    1  UNL1        0.0692
     25 C         140.3359  140.2847  162.1630 C.ar    1  UNL1        0.0485
     26 C         140.7329  139.2620  161.1402 C.ar    1  UNL1        0.1549
     27 F         141.1338  137.8833  161.5744 F       1  UNL1       -0.2028
     28 N         139.5381  142.6861  162.7518 N.ar    1  UNL1       -0.2731
     29 C         140.5549  143.6561  163.2763 C.ar    1  UNL1        0.0829
     30 C         140.1580  144.6789  164.2993 C.ar    1  UNL1        0.0192
     31 C         138.7442  144.7317  164.7977 C.ar    1  UNL1        0.0064
     32 C         137.7274  143.7617  164.2732 C.ar    1  UNL1        0.0611
     33 C         138.1243  142.7389  163.2502 C.ar    1  UNL1        0.2648
     34 O         137.1074  141.7689  162.7257 O.2     1  UNL1       -0.2666
     35 C         143.2395  133.7571  155.8537 C.3     1  UNL1        0.1453
     36 C         143.5733  132.7399  156.9044 C.3     1  UNL1        0.3343
     37 F         144.8760  132.8243  157.6430 F       1  UNL1       -0.1969
     38 F         142.6042  131.6383  157.2163 F       1  UNL1       -0.1969
@<TRIPOS>BOND
     1     6     7    2
     2     7     8   am
     3     8    10    1
     4    10    11   ar
     5    11    12   ar
     6    12    13   ar
     7    13    14    1
     8    13    15   ar
     9    15    16   ar
    10     1     7    1
    11     1     2    1
    12     2     3    1
    13     3    35    1
    14    35    36    1
    15    36    37    1
    16    36    38    1
    17     3     4    1
    18     4     5    1
    19     5    17    1
    20    17    18    2
    21    17    19   am
    22    19    21    1
    23    21    22   ar
    24    22    23   ar
    25    23    24   ar
    26    24    28    1
    27    28    29   ar
    28    29    30   ar
    29    30    31   ar
    30    31    32   ar
    31    32    33   ar
    32    33    34    2
    33    24    25   ar
    34    25    26   ar
    35    26    27    1
    36    16    10   ar
    37     5     1    1
    38    26    21   ar
    39    33    28   ar
    40     8     9    1
    41    19    20    1
@<TRIPOS>MOLECULE
*****
 38 41 0 0 0
SMALL
GASTEIGER

@<TRIPOS>ATOM
      1 C         143.2144  139.5231  158.5472 C.3     1  UNL1        0.1027
      2 C         143.8630  140.8734  158.4703 C.3     1  UNL1        0.0819
      3 N         144.4135  141.0449  157.0855 N.3     1  UNL1       -0.2670
      4 C         144.1051  139.8005  156.3067 C.3     1  UNL1        0.0819
      5 C         143.3640  138.8600  157.2101 C.3     1  UNL1        0.1026
      6 O         142.9732  137.6076  160.2859 O.2     1  UNL1       -0.2747
      7 C         142.5353  138.9385  159.7502 C.2     1  UNL1        0.2286
      8 N         141.4183  139.6847  160.4175 N.am    1  UNL1       -0.2693
      9 H         141.1308  140.5582  160.0660 H       1  UNL1        0.1563
     10 C         140.7392  139.1001  161.6206 C.ar    1  UNL1        0.1342
     11 C         139.4365  138.3727  161.4668 C.ar    1  UNL1        0.0354
     12 C         138.7575  137.7881  162.6698 C.ar    1  UNL1        0.0158
     13 C         139.3812  137.9310  164.0265 C.ar    1  UNL1        0.0769
     14 CL        138.7021  137.3464  165.2295 Cl      1  UNL1       -0.0806
     15 C         140.6839  138.6585  164.1802 C.ar    1  UNL1        0.1116
     16 N         141.3629  139.2430  162.9772 N.ar    1  UNL1       -0.2281
     17 C         142.8609  137.4960  156.8412 C.2     1  UNL1        0.2276
     18 O         141.3923  137.1967  156.9012 O.2     1  UNL1       -0.2747
     19 N         143.8263  136.4311  156.4123 N.am    1  UNL1       -0.2821
     20 H         144.7903  136.6275  156.3729 H       1  UNL1        0.1549
     21 C         143.3233  135.0670  156.0434 C.ar    1  UNL1        0.0782
     22 C         142.9159  134.7749  154.6296 C.ar    1  UNL1        0.0184
     23 C         142.4129  133.4108  154.2606 C.ar    1  UNL1        0.0190
     24 C         142.3172  132.3388  155.3055 C.ar    1  UNL1        0.0692
     25 C         142.7245  132.6309  156.7192 C.ar    1  UNL1        0.0485
     26 C         143.2276  133.9950  157.0882 C.ar    1  UNL1        0.1549
     27 F         143.6349  134.2871  158.5020 F       1  UNL1       -0.2028
     28 N         141.8141  130.9747  154.9365 N.ar    1  UNL1       -0.2731
     29 C         140.3399  130.7277  154.8106 C.ar    1  UNL1        0.0829
     30 C         139.8367  129.3636  154.4417 C.ar    1  UNL1        0.0192
     31 C         140.8078  128.2465  154.1987 C.ar    1  UNL1        0.0064
     32 C         142.2820  128.4935  154.3246 C.ar    1  UNL1        0.0611
     33 C         142.7851  129.8575  154.6935 C.ar    1  UNL1        0.2648
     34 O         144.2593  130.1045  154.8194 O.2     1  UNL1       -0.2666
     35 C         145.1442  142.2493  156.5701 C.3     1  UNL1        0.1453
     36 C         146.6386  142.3224  156.6767 C.3     1  UNL1        0.3343
     37 F         147.4957  141.4365  155.8220 F       1  UNL1       -0.1969
     38 F         147.2758  143.2815  157.6380 F       1  UNL1       -0.1969
@<TRIPOS>BOND
     1     6     7    2
     2     7     8   am
     3     8    10    1
     4    10    11   ar
     5    11    12   ar
     6    12    13   ar
     7    13    14    1
     8    13    15   ar
     9    15    16   ar
    10     1     7    1
    11     1     2    1
    12     2     3    1
    13     3    35    1
    14    35    36    1
    15    36    37    1
    16    36    38    1
    17     3     4    1
    18     4     5    1
    19     5    17    1
    20    17    18    2
    21    17    19   am
    22    19    21    1
    23    21    22   ar
    24    22    23   ar
    25    23    24   ar
    26    24    28    1
    27    28    29   ar
    28    29    30   ar
    29    30    31   ar
    30    31    32   ar
    31    32    33   ar
    32    33    34    2
    33    24    25   ar
    34    25    26   ar
    35    26    27    1
    36    16    10   ar
    37     5     1    1
    38    26    21   ar
    39    33    28   ar
    40     8     9    1
    41    19    20    1
@<TRIPOS>MOLECULE
*****
 38 41 0 0 0
SMALL
GASTEIGER

@<TRIPOS>ATOM
      1 C         141.2426  136.3076  156.0416 C.3     1  UNL1        0.1027
      2 C         141.3645  134.9955  155.3250 C.3     1  UNL1        0.0819
      3 N         142.6426  134.3445  155.7642 N.3     1  UNL1       -0.2670
      4 C         143.3106  135.2544  156.7521 C.3     1  UNL1        0.0819
      5 C         142.4453  136.4676  156.9236 C.3     1  UNL1        0.1026
      6 O         138.6991  136.7982  155.8417 O.2     1  UNL1       -0.2747
      7 C         140.1158  137.2877  155.9009 C.2     1  UNL1        0.2286
      8 N         140.4056  138.7571  155.8194 N.am    1  UNL1       -0.2693
      9 H         141.3354  139.0784  155.8583 H       1  UNL1        0.1563
     10 C         139.2787  139.7372  155.6787 C.ar    1  UNL1        0.1342
     11 C         139.0658  140.4536  154.3782 C.ar    1  UNL1        0.0354
     12 C         137.9390  141.4336  154.2375 C.ar    1  UNL1        0.0158
     13 C         137.0251  141.6972  155.3974 C.ar    1  UNL1        0.0769
     14 CL        135.8982  142.6772  155.2566 Cl      1  UNL1       -0.0806
     15 C         137.2379  140.9808  156.6979 C.ar    1  UNL1        0.1116
     16 N         138.3648  140.0008  156.8385 N.ar    1  UNL1       -0.2281
     17 C         142.7323  137.6358  157.8197 C.2     1  UNL1        0.2276
     18 O         143.4000  138.8596  157.2660 O.2     1  UNL1       -0.2747
     19 N         142.3517  137.5802  159.2695 N.am    1  UNL1       -0.2821
     20 H         141.9134  136.7770  159.6330 H       1  UNL1        0.1549
     21 C         142.6386  138.7483  160.1657 C.ar    1  UNL1        0.0782
     22 C         144.0160  138.9424  160.7270 C.ar    1  UNL1        0.0184
     23 C         144.3031  140.1104  161.6231 C.ar    1  UNL1        0.0190
     24 C         143.2126  141.0845  161.9580 C.ar    1  UNL1        0.0692
     25 C         141.8352  140.8904  161.3968 C.ar    1  UNL1        0.0485
     26 C         141.5482  139.7223  160.5006 C.ar    1  UNL1        0.1549
     27 F         140.1707  139.5283  159.9393 F       1  UNL1       -0.2028
     28 N         143.4996  142.2526  162.8542 N.ar    1  UNL1       -0.2731
     29 C         143.7752  142.0298  164.3117 C.ar    1  UNL1        0.0829
     30 C         144.0622  143.1979  165.2080 C.ar    1  UNL1        0.0192
     31 C         144.0735  144.5888  164.6467 C.ar    1  UNL1        0.0064
     32 C         143.7979  144.8117  163.1892 C.ar    1  UNL1        0.0611
     33 C         143.5109  143.6436  162.2929 C.ar    1  UNL1        0.2648
     34 O         143.2353  143.8665  160.8354 O.2     1  UNL1       -0.2666
     35 C         143.1616  133.0169  155.2973 C.3     1  UNL1        0.1453
     36 C         142.8162  131.7685  156.0537 C.3     1  UNL1        0.3343
     37 F         142.1516  130.6237  155.3482 F       1  UNL1       -0.1969
     38 F         143.1355  131.6649  157.5157 F       1  UNL1       -0.1969
@<TRIPOS>BOND
     1     6     7    2
     2     7     8   am
     3     8    10    1
     4    10    11   ar
     5    11    12   ar
     6    12    13   ar
     7    13    14    1
     8    13    15   ar
     9    15    16   ar
    10     1     7    1
    11     1     2    1
    12     2     3    1
    13     3    35    1
    14    35    36    1
    15    36    37    1
    16    36    38    1
    17     3     4    1
    18     4     5    1
    19     5    17    1
    20    17    18    2
    21    17    19   am
    22    19    21    1
    23    21    22   ar
    24    22    23   ar
    25    23    24   ar
    26    24    28    1
    27    28    29   ar
    28    29    30   ar
    29    30    31   ar
    30    31    32   ar
    31    32    33   ar
    32    33    34    2
    33    24    25   ar
    34    25    26   ar
    35    26    27    1
    36    16    10   ar
    37     5     1    1
    38    26    21   ar
    39    33    28   ar
    40     8     9    1
    41    19    20    1
@<TRIPOS>MOLECULE
*****
 38 41 0 0 0
SMALL
GASTEIGER

@<TRIPOS>ATOM
      1 C         144.3816  139.0616  155.4156 C.3     1  UNL1        0.1027
      2 C         145.3390  139.5038  154.3488 C.3     1  UNL1        0.0819
      3 N         145.8673  140.8547  154.7313 N.3     1  UNL1       -0.2670
      4 C         145.2364  141.2473  156.0343 C.3     1  UNL1        0.0819
      5 C         144.3182  140.1391  156.4572 C.3     1  UNL1        0.1026
      6 O         142.1302  137.7783  155.6011 O.2     1  UNL1       -0.2747
      7 C         143.6212  137.7688  155.4368 C.2     1  UNL1        0.2286
      8 N         144.3517  136.4666  155.2939 N.am    1  UNL1       -0.2693
      9 H         145.3302  136.4603  155.1861 H       1  UNL1        0.1563
     10 C         143.5912  135.1737  155.3152 C.ar    1  UNL1        0.1342
     11 C         143.6299  134.3008  156.5343 C.ar    1  UNL1        0.0354
     12 C         142.8695  133.0080  156.5555 C.ar    1  UNL1        0.0158
     13 C         142.0703  132.5882  155.3576 C.ar    1  UNL1        0.0769
     14 CL        141.3099  131.2954  155.3789 Cl      1  UNL1       -0.0806
     15 C         142.0316  133.4612  154.1384 C.ar    1  UNL1        0.1116
     16 N         142.7920  134.7539  154.1172 N.ar    1  UNL1       -0.2281
     17 C         143.4832  140.1129  157.7030 C.2     1  UNL1        0.2276
     18 O         142.0653  140.6010  157.6661 O.2     1  UNL1       -0.2747
     19 N         144.0661  139.5985  158.9859 N.am    1  UNL1       -0.2821
     20 H         144.9967  139.2781  159.0102 H       1  UNL1        0.1549
     21 C         143.2311  139.5723  160.2318 C.ar    1  UNL1        0.0782
     22 C         142.8514  140.8566  160.9073 C.ar    1  UNL1        0.0184
     23 C         142.0165  140.8304  162.1531 C.ar    1  UNL1        0.0190
     24 C         141.5613  139.5199  162.7235 C.ar    1  UNL1        0.0692
     25 C         141.9410  138.2356  162.0479 C.ar    1  UNL1        0.0485
     26 C         142.7759  138.2617  160.8021 C.ar    1  UNL1        0.1549
     27 F         143.1556  136.9774  160.1266 F       1  UNL1       -0.2028
     28 N         140.7264  139.4936  163.9693 N.ar    1  UNL1       -0.2731
     29 C         139.2389  139.3264  163.8719 C.ar    1  UNL1        0.0829
     30 C         138.4038  139.3002  165.1178 C.ar    1  UNL1        0.0192
     31 C         139.0564  139.4412  166.4610 C.ar    1  UNL1        0.0064
     32 C         140.5438  139.6084  166.5584 C.ar    1  UNL1        0.0611
     33 C         141.3788  139.6346  165.3127 C.ar    1  UNL1        0.2648
     34 O         142.8663  139.8018  165.4101 O.2     1  UNL1       -0.2666
     35 C         146.8533  141.6699  153.9481 C.3     1  UNL1        0.1453
     36 C         147.7329  142.6611  154.6508 C.3     1  UNL1        0.3343
     37 F         149.0347  142.2167  155.2490 F       1  UNL1       -0.1969
     38 F         147.3107  144.0966  154.7553 F       1  UNL1       -0.1969
@<TRIPOS>BOND
     1     6     7    2
     2     7     8   am
     3     8    10    1
     4    10    11   ar
     5    11    12   ar
     6    12    13   ar
     7    13    14    1
     8    13    15   ar
     9    15    16   ar
    10     1     7    1
    11     1     2    1
    12     2     3    1
    13     3    35    1
    14    35    36    1
    15    36    37    1
    16    36    38    1
    17     3     4    1
    18     4     5    1
    19     5    17    1
    20    17    18    2
    21    17    19   am
    22    19    21    1
    23    21    22   ar
    24    22    23   ar
    25    23    24   ar
    26    24    28    1
    27    28    29   ar
    28    29    30   ar
    29    30    31   ar
    30    31    32   ar
    31    32    33   ar
    32    33    34    2
    33    24    25   ar
    34    25    26   ar
    35    26    27    1
    36    16    10   ar
    37     5     1    1
    38    26    21   ar
    39    33    28   ar
    40     8     9    1
    41    19    20    1
@<TRIPOS>MOLECULE
*****
 38 41 0 0 0
SMALL
GASTEIGER

@<TRIPOS>ATOM
      1 C         141.6567  135.9264  155.7310 C.3     1  UNL1        0.1027
      2 C         141.7834  134.5531  155.1410 C.3     1  UNL1        0.0819
      3 N         142.8782  133.8339  155.8719 N.3     1  UNL1       -0.2670
      4 C         143.4281  134.7627  156.9135 C.3     1  UNL1        0.0819
      5 C         142.6731  136.0559  156.8264 C.3     1  UNL1        0.1026
      6 O         141.1803  138.2313  154.6307 O.2     1  UNL1       -0.2747
      7 C         140.6842  136.9844  155.3009 C.2     1  UNL1        0.2286
      8 N         139.2157  136.7956  155.5411 N.am    1  UNL1       -0.2693
      9 H         138.8901  135.9772  155.9810 H       1  UNL1        0.1563
     10 C         138.2432  137.8536  155.1110 C.ar    1  UNL1        0.1342
     11 C         137.3513  137.6165  153.9285 C.ar    1  UNL1        0.0354
     12 C         136.3789  138.6745  153.4985 C.ar    1  UNL1        0.0158
     13 C         136.2983  139.9696  154.2510 C.ar    1  UNL1        0.0769
     14 CL        135.3258  141.0277  153.8209 Cl      1  UNL1       -0.0806
     15 C         137.1902  140.2067  155.4335 C.ar    1  UNL1        0.1116
     16 N         138.1626  139.1487  155.8635 N.ar    1  UNL1       -0.2281
     17 C         142.8955  137.2662  157.6842 C.2     1  UNL1        0.2276
     18 O         143.5670  138.4787  157.1108 O.2     1  UNL1       -0.2747
     19 N         142.4464  137.2639  159.1154 N.am    1  UNL1       -0.2821
     20 H         142.0057  136.4681  159.4917 H       1  UNL1        0.1549
     21 C         142.6688  138.4742  159.9732 C.ar    1  UNL1        0.0782
     22 C         141.8263  139.6992  159.7746 C.ar    1  UNL1        0.0184
     23 C         142.0486  140.9095  160.6324 C.ar    1  UNL1        0.0190
     24 C         143.1134  140.8947  161.6888 C.ar    1  UNL1        0.0692
     25 C         143.9559  139.6696  161.8873 C.ar    1  UNL1        0.0485
     26 C         143.7336  138.4594  161.0296 C.ar    1  UNL1        0.1549
     27 F         144.5761  137.2343  161.2281 F       1  UNL1       -0.2028
     28 N         143.3358  142.1049  162.5466 N.ar    1  UNL1       -0.2731
     29 C         143.9399  143.3434  161.9541 C.ar    1  UNL1        0.0829
     30 C         144.1624  144.5538  162.8118 C.ar    1  UNL1        0.0192
     31 C         143.7805  144.5255  164.2621 C.ar    1  UNL1        0.0064
     32 C         143.1763  143.2870  164.8546 C.ar    1  UNL1        0.0611
     33 C         142.9539  142.0768  163.9969 C.ar    1  UNL1        0.2648
     34 O         142.3498  140.8383  164.5894 O.2     1  UNL1       -0.2666
     35 C         143.3418  132.4320  155.6075 C.3     1  UNL1        0.1453
     36 C         142.6318  131.2745  156.2450 C.3     1  UNL1        0.3343
     37 F         141.4655  130.6358  155.5511 F       1  UNL1       -0.1969
     38 F         143.0884  130.7559  157.5764 F       1  UNL1       -0.1969
@<TRIPOS>BOND
     1     6     7    2
     2     7     8   am
     3     8    10    1
     4    10    11   ar
     5    11    12   ar
     6    12    13   ar
     7    13    14    1
     8    13    15   ar
     9    15    16   ar
    10     1     7    1
    11     1     2    1
    12     2     3    1
    13     3    35    1
    14    35    36    1
    15    36    37    1
    16    36    38    1
    17     3     4    1
    18     4     5    1
    19     5    17    1
    20    17    18    2
    21    17    19   am
    22    19    21    1
    23    21    22   ar
    24    22    23   ar
    25    23    24   ar
    26    24    28    1
    27    28    29   ar
    28    29    30   ar
    29    30    31   ar
    30    31    32   ar
    31    32    33   ar
    32    33    34    2
    33    24    25   ar
    34    25    26   ar
    35    26    27    1
    36    16    10   ar
    37     5     1    1
    38    26    21   ar
    39    33    28   ar
    40     8     9    1
    41    19    20    1
@<TRIPOS>MOLECULE
*****
 38 41 0 0 0
SMALL
GASTEIGER

@<TRIPOS>ATOM
      1 C         140.1022  144.3041  156.5228 C.3     1  UNL1        0.1027
      2 C         139.6392  145.1010  155.3393 C.3     1  UNL1        0.0819
      3 N         139.4460  146.5207  155.7834 N.3     1  UNL1       -0.2670
      4 C         139.7896  146.6012  157.2413 C.3     1  UNL1        0.0819
      5 C         140.1952  145.2312  157.6983 C.3     1  UNL1        0.1026
      6 O         139.5303  141.8767  155.7942 O.2     1  UNL1       -0.2747
      7 C         140.4170  142.8375  156.5295 C.2     1  UNL1        0.2286
      8 N         141.6184  142.3317  157.2716 N.am    1  UNL1       -0.2693
      9 H         142.2004  142.9622  157.7543 H       1  UNL1        0.1563
     10 C         141.9332  140.8650  157.2784 C.ar    1  UNL1        0.1342
     11 C         141.2677  139.9597  158.2720 C.ar    1  UNL1        0.0354
     12 C         141.5825  138.4931  158.2787 C.ar    1  UNL1        0.0158
     13 C         142.5628  137.9319  157.2918 C.ar    1  UNL1        0.0769
     14 CL        142.8776  136.4653  157.2985 Cl      1  UNL1       -0.0806
     15 C         143.2283  138.8373  156.2981 C.ar    1  UNL1        0.1116
     16 N         142.9135  140.3038  156.2914 N.ar    1  UNL1       -0.2281
     17 C         140.6192  144.8545  159.0869 C.2     1  UNL1        0.2276
     18 O         142.0738  144.8550  159.4530 O.2     1  UNL1       -0.2747
     19 N         139.5886  144.4774  160.1095 N.am    1  UNL1       -0.2821
     20 H         138.6339  144.4771  159.8692 H       1  UNL1        0.1549
     21 C         140.0126  144.1006  161.4981 C.ar    1  UNL1        0.0782
     22 C         140.1432  142.6549  161.8761 C.ar    1  UNL1        0.0184
     23 C         140.5672  142.2781  163.2647 C.ar    1  UNL1        0.0190
     24 C         140.8605  143.3471  164.2753 C.ar    1  UNL1        0.0692
     25 C         140.7298  144.7928  163.8973 C.ar    1  UNL1        0.0485
     26 C         140.3059  145.1696  162.5087 C.ar    1  UNL1        0.1549
     27 F         140.1752  146.6153  162.1307 F       1  UNL1       -0.2028
     28 N         141.2844  142.9704  165.6639 N.ar    1  UNL1       -0.2731
     29 C         140.2742  142.9319  166.7720 C.ar    1  UNL1        0.0829
     30 C         140.6981  142.5551  168.1608 C.ar    1  UNL1        0.0192
     31 C         142.1323  142.2169  168.4413 C.ar    1  UNL1        0.0064
     32 C         143.1425  142.2554  167.3332 C.ar    1  UNL1        0.0611
     33 C         142.7186  142.6321  165.9445 C.ar    1  UNL1        0.2648
     34 O         143.7289  142.6706  164.8364 O.2     1  UNL1       -0.2666
     35 C         138.9894  147.6599  154.9210 C.3     1  UNL1        0.1453
     36 C         139.0362  149.0641  155.4465 C.3     1  UNL1        0.3343
     37 F         138.1785  149.4574  156.6125 F       1  UNL1       -0.1969
     38 F         139.9407  150.0748  154.8060 F       1  UNL1       -0.1969
@<TRIPOS>BOND
     1     6     7    2
     2     7     8   am
     3     8    10    1
     4    10    11   ar
     5    11    12   ar
     6    12    13   ar
     7    13    14    1
     8    13    15   ar
     9    15    16   ar
    10     1     7    1
    11     1     2    1
    12     2     3    1
    13     3    35    1
    14    35    36    1
    15    36    37    1
    16    36    38    1
    17     3     4    1
    18     4     5    1
    19     5    17    1
    20    17    18    2
    21    17    19   am
    22    19    21    1
    23    21    22   ar
    24    22    23   ar
    25    23    24   ar
    26    24    28    1
    27    28    29   ar
    28    29    30   ar
    29    30    31   ar
    30    31    32   ar
    31    32    33   ar
    32    33    34    2
    33    24    25   ar
    34    25    26   ar
    35    26    27    1
    36    16    10   ar
    37     5     1    1
    38    26    21   ar
    39    33    28   ar
    40     8     9    1
    41    19    20    1
@<TRIPOS>MOLECULE
*****
 38 41 0 0 0
SMALL
GASTEIGER

@<TRIPOS>ATOM
      1 C         139.1990  137.4805  154.3264 C.3     1  UNL1        0.1027
      2 C         138.1841  137.6871  153.2414 C.3     1  UNL1        0.0819
      3 N         137.3482  138.8772  153.6093 N.3     1  UNL1       -0.2670
      4 C         137.8466  139.4059  154.9216 C.3     1  UNL1        0.0819
      5 C         138.9905  138.5427  155.3648 C.3     1  UNL1        0.1026
      6 O         140.9804  136.0270  153.1163 O.2     1  UNL1       -0.2747
      7 C         140.2398  136.4009  154.3660 C.2     1  UNL1        0.2286
      8 N         140.5399  135.6954  155.6552 N.am    1  UNL1       -0.2693
      9 H         140.0538  135.9408  156.4754 H       1  UNL1        0.1563
     10 C         141.5807  134.6159  155.6948 C.ar    1  UNL1        0.1342
     11 C         142.9879  134.9452  156.0964 C.ar    1  UNL1        0.0354
     12 C         144.0286  133.8657  156.1360 C.ar    1  UNL1        0.0158
     13 C         143.6621  132.4569  155.7740 C.ar    1  UNL1        0.0769
     14 CL        144.7029  131.3774  155.8136 Cl      1  UNL1       -0.0806
     15 C         142.2549  132.1276  155.3724 C.ar    1  UNL1        0.1116
     16 N         141.2142  133.2071  155.3328 N.ar    1  UNL1       -0.2281
     17 C         139.7861  138.7119  156.6250 C.2     1  UNL1        0.2276
     18 O         139.5554  137.7917  157.7869 O.2     1  UNL1       -0.2747
     19 N         140.8125  139.8013  156.7234 N.am    1  UNL1       -0.2821
     20 H         140.9640  140.4053  155.9608 H       1  UNL1        0.1549
     21 C         141.6082  139.9706  157.9836 C.ar    1  UNL1        0.0782
     22 C         141.1320  140.9111  159.0507 C.ar    1  UNL1        0.0184
     23 C         141.9276  141.0804  160.3109 C.ar    1  UNL1        0.0190
     24 C         143.1995  140.3092  160.5041 C.ar    1  UNL1        0.0692
     25 C         143.6758  139.3687  159.4371 C.ar    1  UNL1        0.0485
     26 C         142.8802  139.1993  158.1768 C.ar    1  UNL1        0.1549
     27 F         143.3565  138.2588  157.1098 F       1  UNL1       -0.2028
     28 N         143.9952  140.4785  161.7643 N.ar    1  UNL1       -0.2731
     29 C         143.9433  139.4254  162.8313 C.ar    1  UNL1        0.0829
     30 C         144.7390  139.5946  164.0916 C.ar    1  UNL1        0.0192
     31 C         145.5866  140.8170  164.2849 C.ar    1  UNL1        0.0064
     32 C         145.6386  141.8700  163.2180 C.ar    1  UNL1        0.0611
     33 C         144.8430  141.7008  161.9577 C.ar    1  UNL1        0.2648
     34 O         144.8949  142.7539  160.8908 O.2     1  UNL1       -0.2666
     35 C         136.2133  139.4398  152.8059 C.3     1  UNL1        0.1453
     36 C         135.1682  140.2839  153.4731 C.3     1  UNL1        0.3343
     37 F         134.7962  141.6157  152.8916 F       1  UNL1       -0.1969
     38 F         134.4950  139.7963  154.7217 F       1  UNL1       -0.1969
@<TRIPOS>BOND
     1     6     7    2
     2     7     8   am
     3     8    10    1
     4    10    11   ar
     5    11    12   ar
     6    12    13   ar
     7    13    14    1
     8    13    15   ar
     9    15    16   ar
    10     1     7    1
    11     1     2    1
    12     2     3    1
    13     3    35    1
    14    35    36    1
    15    36    37    1
    16    36    38    1
    17     3     4    1
    18     4     5    1
    19     5    17    1
    20    17    18    2
    21    17    19   am
    22    19    21    1
    23    21    22   ar
    24    22    23   ar
    25    23    24   ar
    26    24    28    1
    27    28    29   ar
    28    29    30   ar
    29    30    31   ar
    30    31    32   ar
    31    32    33   ar
    32    33    34    2
    33    24    25   ar
    34    25    26   ar
    35    26    27    1
    36    16    10   ar
    37     5     1    1
    38    26    21   ar
    39    33    28   ar
    40     8     9    1
    41    19    20    1
@<TRIPOS>MOLECULE
*****
 38 41 0 0 0
SMALL
GASTEIGER

@<TRIPOS>ATOM
      1 C         138.2428  139.4531  155.4742 C.3     1  UNL1        0.1027
      2 C         137.5292  139.9089  154.2360 C.3     1  UNL1        0.0819
      3 N         136.7753  141.1620  154.5702 N.3     1  UNL1       -0.2670
      4 C         137.0229  141.4805  156.0150 C.3     1  UNL1        0.0819
      5 C         137.9299  140.4243  156.5736 C.3     1  UNL1        0.1026
      6 O         138.4963  136.8785  155.7131 O.2     1  UNL1       -0.2747
      7 C         139.1160  138.2391  155.5921 C.2     1  UNL1        0.2286
      8 N         140.6087  138.3858  155.5891 N.am    1  UNL1       -0.2693
      9 H         141.0154  139.2789  155.5098 H       1  UNL1        0.1563
     10 C         141.4819  137.1718  155.7071 C.ar    1  UNL1        0.1342
     11 C         141.7202  136.3002  154.5099 C.ar    1  UNL1        0.0354
     12 C         142.5933  135.0862  154.6279 C.ar    1  UNL1        0.0158
     13 C         143.2282  134.7440  155.9431 C.ar    1  UNL1        0.0769
     14 CL        144.1014  133.5300  156.0610 Cl      1  UNL1       -0.0806
     15 C         142.9899  135.6156  157.1403 C.ar    1  UNL1        0.1116
     16 N         142.1168  136.8296  157.0223 N.ar    1  UNL1       -0.2281
     17 C         138.4352  140.3521  157.9841 C.2     1  UNL1        0.2276
     18 O         139.9060  140.4551  158.2600 O.2     1  UNL1       -0.2747
     19 N         137.4698  140.1768  159.1186 N.am    1  UNL1       -0.2821
     20 H         136.5044  140.1092  158.9375 H       1  UNL1        0.1549
     21 C         137.9750  140.1045  160.5291 C.ar    1  UNL1        0.0782
     22 C         138.1613  138.7718  161.1917 C.ar    1  UNL1        0.0184
     23 C         138.6665  138.6994  162.6021 C.ar    1  UNL1        0.0190
     24 C         138.9855  139.9599  163.3500 C.ar    1  UNL1        0.0692
     25 C         138.7993  141.2927  162.6875 C.ar    1  UNL1        0.0485
     26 C         138.2940  141.3650  161.2770 C.ar    1  UNL1        0.1549
     27 F         138.1077  142.6978  160.6145 F       1  UNL1       -0.2028
     28 N         139.4908  139.8876  164.7605 N.ar    1  UNL1       -0.2731
     29 C         138.5245  139.7210  165.8957 C.ar    1  UNL1        0.0829
     30 C         139.0297  139.6487  167.3063 C.ar    1  UNL1        0.0192
     31 C         140.5012  139.7431  167.5816 C.ar    1  UNL1        0.0064
     32 C         141.4675  139.9097  166.4464 C.ar    1  UNL1        0.0611
     33 C         140.9623  139.9820  165.0359 C.ar    1  UNL1        0.2648
     34 O         141.9285  140.1486  163.9008 O.2     1  UNL1       -0.2666
     35 C         135.9234  141.9568  153.6256 C.3     1  UNL1        0.1453
     36 C         134.4948  141.5634  153.3920 C.3     1  UNL1        0.3343
     37 F         133.7474  142.1168  152.2151 F       1  UNL1       -0.1969
     38 F         133.8138  140.6166  154.3353 F       1  UNL1       -0.1969
@<TRIPOS>BOND
     1     6     7    2
     2     7     8   am
     3     8    10    1
     4    10    11   ar
     5    11    12   ar
     6    12    13   ar
     7    13    14    1
     8    13    15   ar
     9    15    16   ar
    10     1     7    1
    11     1     2    1
    12     2     3    1
    13     3    35    1
    14    35    36    1
    15    36    37    1
    16    36    38    1
    17     3     4    1
    18     4     5    1
    19     5    17    1
    20    17    18    2
    21    17    19   am
    22    19    21    1
    23    21    22   ar
    24    22    23   ar
    25    23    24   ar
    26    24    28    1
    27    28    29   ar
    28    29    30   ar
    29    30    31   ar
    30    31    32   ar
    31    32    33   ar
    32    33    34    2
    33    24    25   ar
    34    25    26   ar
    35    26    27    1
    36    16    10   ar
    37     5     1    1
    38    26    21   ar
    39    33    28   ar
    40     8     9    1
    41    19    20    1
