@<TRIPOS>MOLECULE
*****
 38 42 0 0 0
SMALL
GASTEIGER

@<TRIPOS>ATOM
      1 C         141.3139  143.4868  159.7922 C.ar    1  UNL1        0.0534
      2 C         141.4046  144.5141  160.8814 C.ar    1  UNL1        0.0047
      3 C         141.1629  144.1183  162.3080 C.ar    1  UNL1        0.0048
      4 C         140.8304  142.6950  162.6452 C.ar    1  UNL1        0.0536
      5 C         140.7396  141.6677  161.5560 C.ar    1  UNL1        0.0048
      6 C         140.9814  142.0636  160.1295 C.ar    1  UNL1        0.0047
      7 C         140.5886  142.2991  164.0717 C.ar    1  UNL1        0.2296
      8 N         141.0090  143.0741  165.2852 N.ar    1  UNL1       -0.2082
      9 C         140.5642  142.3126  166.4985 C.ar    1  UNL1        0.1192
     10 C         140.7025  142.5925  167.9657 C.ar    1  UNL1        0.0326
     11 C         140.1454  141.6267  168.9692 C.ar    1  UNL1        0.0698
     12 C         139.4501  140.3812  168.5056 C.ar    1  UNL1        0.0091
     13 C         139.3118  140.1012  167.0385 C.ar    1  UNL1        0.0143
     14 C         139.8689  141.0669  166.0349 C.ar    1  UNL1        0.1607
     15 O         139.8840  141.0586  164.5350 O.2     1  UNL1       -0.4349
     16 C         138.6165  138.8556  166.5749 C.3     1  UNL1        0.0254
     17 C         137.4195  138.3435  167.3197 C.3     1  UNL1        0.0048
     18 C         139.1184  138.1220  165.3665 C.3     1  UNL1        0.0048
     19 C         140.2837  141.9067  170.4364 C.1     1  UNL1        0.1005
     20 N         140.4219  142.1866  171.9036 N.1     1  UNL1       -0.1908
     21 N         140.6243  143.4116  157.2886 N.am    1  UNL1       -0.3009
     22 C         141.5557  143.8827  158.3658 C.2     1  UNL1        0.2458
     23 O         142.7288  144.7498  158.0166 O.2     1  UNL1       -0.2701
     24 H         139.8543  142.8425  157.5178 H       1  UNL1        0.1497
     25 C         140.8660  143.8075  155.8621 C.3     1  UNL1        0.0896
     26 C         139.9021  147.9841  154.4920 C.3     1  UNL1        0.0223
     27 C         139.3054  147.4550  155.7624 C.3     1  UNL1        0.0044
     28 C         139.6267  146.0629  156.2192 C.3     1  UNL1        0.0020
     29 C         140.5447  145.1998  155.4054 C.3     1  UNL1        0.0196
     30 C         141.1413  145.7288  154.1349 C.3     1  UNL1        0.0020
     31 C         140.8200  147.1209  153.6781 C.3     1  UNL1        0.0044
     32 C         138.4202  152.8455  155.5739 C.3     1  UNL1        0.0310
     33 C         138.8398  151.8070  154.5762 C.ar    1  UNL1       -0.0222
     34 C         138.9380  152.1606  153.1218 C.ar    1  UNL1       -0.0043
     35 C         139.3576  151.1221  152.1241 C.ar    1  UNL1       -0.0006
     36 C         139.6789  149.7299  152.5809 C.ar    1  UNL1       -0.0043
     37 C         139.5807  149.3762  154.0353 C.ar    1  UNL1       -0.0228
     38 C         139.1611  150.4148  155.0329 C.ar    1  UNL1       -0.0085
@<TRIPOS>BOND
     1    32    33    1
     2    33    34   ar
     3    34    35   ar
     4    35    36   ar
     5    36    37   ar
     6    26    37    1
     7    26    27    1
     8    27    28    1
     9    28    29    1
    10    29    25    1
    11    25    21    1
    12    21    22   am
    13    22    23    2
    14    22     1    1
    15     1     2   ar
    16     2     3   ar
    17     3     4   ar
    18     4     7    1
    19     7     8   ar
    20     8     9   ar
    21     9    10   ar
    22    10    11   ar
    23    11    19    1
    24    19    20    3
    25    11    12   ar
    26    12    13   ar
    27    13    16    1
    28    16    17    1
    29    16    18    1
    30    13    14   ar
    31    14    15   ar
    32     4     5   ar
    33     5     6   ar
    34    29    30    1
    35    30    31    1
    36    37    38   ar
    37    38    33   ar
    38    31    26    1
    39     6     1   ar
    40    15     7   ar
    41    14     9   ar
    42    21    24    1
@<TRIPOS>MOLECULE
*****
 38 42 0 0 0
SMALL
GASTEIGER

@<TRIPOS>ATOM
      1 C         141.5860  138.6917  159.8909 C.ar    1  UNL1        0.0534
      2 C         140.7180  139.8757  160.1987 C.ar    1  UNL1        0.0047
      3 C         140.6490  140.4116  161.5980 C.ar    1  UNL1        0.0048
      4 C         141.4481  139.7635  162.6895 C.ar    1  UNL1        0.0536
      5 C         142.3161  138.5795  162.3817 C.ar    1  UNL1        0.0048
      6 C         142.3851  138.0436  160.9824 C.ar    1  UNL1        0.0047
      7 C         141.3791  140.2994  164.0888 C.ar    1  UNL1        0.2296
      8 N         140.7453  141.5929  164.5074 N.ar    1  UNL1       -0.2082
      9 C         140.9064  141.7287  165.9925 C.ar    1  UNL1        0.1192
     10 C         140.4800  142.7975  166.9547 C.ar    1  UNL1        0.0326
     11 C         140.7870  142.6568  168.4162 C.ar    1  UNL1        0.0698
     12 C         141.5204  141.4474  168.9155 C.ar    1  UNL1        0.0091
     13 C         141.9468  140.3785  167.9533 C.ar    1  UNL1        0.0143
     14 C         141.6398  140.5192  166.4918 C.ar    1  UNL1        0.1607
     15 O         141.9319  139.6358  165.3153 O.2     1  UNL1       -0.4349
     16 C         142.6801  139.1691  168.4526 C.3     1  UNL1        0.0254
     17 C         142.6509  138.8237  169.9120 C.3     1  UNL1        0.0048
     18 C         143.4428  138.3049  167.4925 C.3     1  UNL1        0.0048
     19 C         140.3606  143.7257  169.3785 C.1     1  UNL1        0.1005
     20 N         139.9343  144.7945  170.3407 N.1     1  UNL1       -0.1908
     21 N         142.9682  137.7028  157.9259 N.am    1  UNL1       -0.3009
     22 C         141.6549  138.1558  158.4916 C.2     1  UNL1        0.2458
     23 O         140.4106  138.0729  157.6580 O.2     1  UNL1       -0.2701
     24 H         143.7849  137.7572  158.4730 H       1  UNL1        0.1497
     25 C         143.0372  137.1669  156.5265 C.3     1  UNL1        0.0896
     26 C         141.9965  132.8656  155.7107 C.3     1  UNL1        0.0223
     27 C         141.4110  133.9533  154.8598 C.3     1  UNL1        0.0044
     28 C         141.7578  135.3870  155.1317 C.3     1  UNL1        0.0020
     29 C         142.6903  135.7331  156.2546 C.3     1  UNL1        0.0196
     30 C         143.2758  134.6454  157.1055 C.3     1  UNL1        0.0020
     31 C         142.9289  133.2116  156.8336 C.3     1  UNL1        0.0044
     32 C         143.0279  127.8030  156.2645 C.3     1  UNL1        0.0310
     33 C         142.1653  128.9005  155.7156 C.ar    1  UNL1       -0.0222
     34 C         140.9557  128.5643  154.8947 C.ar    1  UNL1       -0.0043
     35 C         140.0931  129.6618  154.3457 C.ar    1  UNL1       -0.0006
     36 C         140.4401  131.0956  154.6178 C.ar    1  UNL1       -0.0043
     37 C         141.6496  131.4318  155.4387 C.ar    1  UNL1       -0.0228
     38 C         142.5122  130.3342  155.9876 C.ar    1  UNL1       -0.0085
@<TRIPOS>BOND
     1    32    33    1
     2    33    34   ar
     3    34    35   ar
     4    35    36   ar
     5    36    37   ar
     6    26    37    1
     7    26    27    1
     8    27    28    1
     9    28    29    1
    10    29    25    1
    11    25    21    1
    12    21    22   am
    13    22    23    2
    14    22     1    1
    15     1     2   ar
    16     2     3   ar
    17     3     4   ar
    18     4     7    1
    19     7     8   ar
    20     8     9   ar
    21     9    10   ar
    22    10    11   ar
    23    11    19    1
    24    19    20    3
    25    11    12   ar
    26    12    13   ar
    27    13    16    1
    28    16    17    1
    29    16    18    1
    30    13    14   ar
    31    14    15   ar
    32     4     5   ar
    33     5     6   ar
    34    29    30    1
    35    30    31    1
    36    37    38   ar
    37    38    33   ar
    38    31    26    1
    39     6     1   ar
    40    15     7   ar
    41    14     9   ar
    42    21    24    1
@<TRIPOS>MOLECULE
*****
 38 42 0 0 0
SMALL
GASTEIGER

@<TRIPOS>ATOM
      1 C         142.2848  138.2385  158.8882 C.ar    1  UNL1        0.0534
      2 C         142.9194  137.6591  160.1176 C.ar    1  UNL1        0.0047
      3 C         142.7478  138.3409  161.4427 C.ar    1  UNL1        0.0048
      4 C         141.9414  139.6021  161.5383 C.ar    1  UNL1        0.0536
      5 C         141.3067  140.1814  160.3089 C.ar    1  UNL1        0.0048
      6 C         141.4784  139.4997  158.9838 C.ar    1  UNL1        0.0047
      7 C         141.7696  140.2839  162.8633 C.ar    1  UNL1        0.2296
      8 N         142.6605  140.1235  164.0594 N.ar    1  UNL1       -0.2082
      9 C         142.1183  140.9862  165.1602 C.ar    1  UNL1        0.1192
     10 C         142.5825  141.2299  166.5656 C.ar    1  UNL1        0.0326
     11 C         141.8208  142.1672  167.4551 C.ar    1  UNL1        0.0698
     12 C         140.5949  142.8608  166.9393 C.ar    1  UNL1        0.0091
     13 C         140.1307  142.6171  165.5340 C.ar    1  UNL1        0.0143
     14 C         140.8924  141.6799  164.6444 C.ar    1  UNL1        0.1607
     15 O         140.6769  141.2457  163.2248 O.2     1  UNL1       -0.4349
     16 C         138.9048  143.3107  165.0182 C.3     1  UNL1        0.0254
     17 C         138.8062  144.8061  165.0822 C.3     1  UNL1        0.0048
     18 C         137.7773  142.5089  164.4383 C.3     1  UNL1        0.0048
     19 C         142.2850  142.4109  168.8606 C.1     1  UNL1        0.1005
     20 N         142.7492  142.6545  170.2660 N.1     1  UNL1       -0.1908
     21 N         141.4182  136.5893  157.0775 N.am    1  UNL1       -0.3009
     22 C         142.4565  137.5567  157.5632 C.2     1  UNL1        0.2458
     23 O         143.6665  137.8424  156.7240 O.2     1  UNL1       -0.2701
     24 H         140.6241  136.4018  157.6283 H       1  UNL1        0.1497
     25 C         141.5900  135.9075  155.7525 C.3     1  UNL1        0.0896
     26 C         143.4450  131.8124  155.5529 C.3     1  UNL1        0.0223
     27 C         144.2350  132.9683  156.0912 C.3     1  UNL1        0.0044
     28 C         143.6168  134.3333  156.1578 C.3     1  UNL1        0.0020
     29 C         142.2084  134.5424  155.6859 C.3     1  UNL1        0.0196
     30 C         141.4183  133.3866  155.1476 C.3     1  UNL1        0.0020
     31 C         142.0366  132.0216  155.0810 C.3     1  UNL1        0.0044
     32 C         145.0772  127.4908  157.9318 C.3     1  UNL1        0.0310
     33 C         144.8795  128.2866  156.6758 C.ar    1  UNL1       -0.0222
     34 C         145.3001  127.7175  155.3532 C.ar    1  UNL1       -0.0043
     35 C         145.1024  128.5133  154.0972 C.ar    1  UNL1       -0.0006
     36 C         144.4840  129.8783  154.1638 C.ar    1  UNL1       -0.0043
     37 C         144.0634  130.4475  155.4864 C.ar    1  UNL1       -0.0228
     38 C         144.2611  129.6515  156.7424 C.ar    1  UNL1       -0.0085
@<TRIPOS>BOND
     1    32    33    1
     2    33    34   ar
     3    34    35   ar
     4    35    36   ar
     5    36    37   ar
     6    26    37    1
     7    26    27    1
     8    27    28    1
     9    28    29    1
    10    29    25    1
    11    25    21    1
    12    21    22   am
    13    22    23    2
    14    22     1    1
    15     1     2   ar
    16     2     3   ar
    17     3     4   ar
    18     4     7    1
    19     7     8   ar
    20     8     9   ar
    21     9    10   ar
    22    10    11   ar
    23    11    19    1
    24    19    20    3
    25    11    12   ar
    26    12    13   ar
    27    13    16    1
    28    16    17    1
    29    16    18    1
    30    13    14   ar
    31    14    15   ar
    32     4     5   ar
    33     5     6   ar
    34    29    30    1
    35    30    31    1
    36    37    38   ar
    37    38    33   ar
    38    31    26    1
    39     6     1   ar
    40    15     7   ar
    41    14     9   ar
    42    21    24    1
@<TRIPOS>MOLECULE
*****
 38 42 0 0 0
SMALL
GASTEIGER

@<TRIPOS>ATOM
      1 C         142.1085  138.1597  158.6922 C.ar    1  UNL1        0.0534
      2 C         142.9416  137.6807  159.8439 C.ar    1  UNL1        0.0047
      3 C         142.8504  138.3694  161.1733 C.ar    1  UNL1        0.0048
      4 C         141.9259  139.5372  161.3510 C.ar    1  UNL1        0.0536
      5 C         141.0928  140.0163  160.1993 C.ar    1  UNL1        0.0048
      6 C         141.1841  139.3275  158.8699 C.ar    1  UNL1        0.0047
      7 C         141.8346  140.2260  162.6804 C.ar    1  UNL1        0.2296
      8 N         142.8243  140.1129  163.8018 N.ar    1  UNL1       -0.2082
      9 C         142.3388  140.9658  164.9362 C.ar    1  UNL1        0.1192
     10 C         142.9046  141.2422  166.2976 C.ar    1  UNL1        0.0326
     11 C         142.1805  142.1589  167.2387 C.ar    1  UNL1        0.0698
     12 C         140.8908  142.7990  166.8184 C.ar    1  UNL1        0.0091
     13 C         140.3251  142.5226  165.4570 C.ar    1  UNL1        0.0143
     14 C         141.0491  141.6060  164.5159 C.ar    1  UNL1        0.1607
     15 O         140.7374  141.1488  163.1217 O.2     1  UNL1       -0.4349
     16 C         139.0353  143.1628  165.0367 C.3     1  UNL1        0.0254
     17 C         137.9107  142.3153  164.5199 C.3     1  UNL1        0.0048
     18 C         138.8701  144.6506  165.1331 C.3     1  UNL1        0.0048
     19 C         142.7463  142.4353  168.6003 C.1     1  UNL1        0.1005
     20 N         143.3121  142.7117  169.9617 N.1     1  UNL1       -0.1908
     21 N         143.5420  137.1832  156.7579 N.am    1  UNL1       -0.3009
     22 C         142.1999  137.4709  157.3628 C.2     1  UNL1        0.2458
     23 O         140.9491  137.0699  156.6384 O.2     1  UNL1       -0.2701
     24 H         144.3629  137.4464  157.2334 H       1  UNL1        0.1497
     25 C         143.6333  136.4944  155.4286 C.3     1  UNL1        0.0896
     26 C         142.0124  132.3252  154.9386 C.3     1  UNL1        0.0223
     27 C         141.7695  133.3542  153.8746 C.3     1  UNL1        0.0044
     28 C         142.3098  134.7439  154.0378 C.3     1  UNL1        0.0020
     29 C         143.0930  135.1046  155.2652 C.3     1  UNL1        0.0196
     30 C         143.3359  134.0757  156.3293 C.3     1  UNL1        0.0020
     31 C         142.7956  132.6859  156.1660 C.3     1  UNL1        0.0044
     32 C         141.9705  127.3203  156.3347 C.3     1  UNL1        0.0310
     33 C         141.4511  128.4330  155.4733 C.ar    1  UNL1       -0.0222
     34 C         140.3913  128.1560  154.4485 C.ar    1  UNL1       -0.0043
     35 C         139.8719  129.2687  153.5871 C.ar    1  UNL1       -0.0006
     36 C         140.4123  130.6585  153.7505 C.ar    1  UNL1       -0.0043
     37 C         141.4721  130.9355  154.7753 C.ar    1  UNL1       -0.0228
     38 C         141.9915  129.8226  155.6367 C.ar    1  UNL1       -0.0085
@<TRIPOS>BOND
     1    32    33    1
     2    33    34   ar
     3    34    35   ar
     4    35    36   ar
     5    36    37   ar
     6    26    37    1
     7    26    27    1
     8    27    28    1
     9    28    29    1
    10    29    25    1
    11    25    21    1
    12    21    22   am
    13    22    23    2
    14    22     1    1
    15     1     2   ar
    16     2     3   ar
    17     3     4   ar
    18     4     7    1
    19     7     8   ar
    20     8     9   ar
    21     9    10   ar
    22    10    11   ar
    23    11    19    1
    24    19    20    3
    25    11    12   ar
    26    12    13   ar
    27    13    16    1
    28    16    17    1
    29    16    18    1
    30    13    14   ar
    31    14    15   ar
    32     4     5   ar
    33     5     6   ar
    34    29    30    1
    35    30    31    1
    36    37    38   ar
    37    38    33   ar
    38    31    26    1
    39     6     1   ar
    40    15     7   ar
    41    14     9   ar
    42    21    24    1
@<TRIPOS>MOLECULE
*****
 38 42 0 0 0
SMALL
GASTEIGER

@<TRIPOS>ATOM
      1 C         144.1378  141.3237  158.8645 C.ar    1  UNL1        0.0534
      2 C         143.3408  140.2089  159.4744 C.ar    1  UNL1        0.0047
      3 C         142.8958  140.2999  160.9040 C.ar    1  UNL1        0.0048
      4 C         143.2478  141.5058  161.7237 C.ar    1  UNL1        0.0536
      5 C         144.0448  142.6206  161.1139 C.ar    1  UNL1        0.0048
      6 C         144.4899  142.5296  159.6843 C.ar    1  UNL1        0.0047
      7 C         142.8028  141.5968  163.1533 C.ar    1  UNL1        0.2296
      8 N         143.6024  142.1580  164.2916 N.ar    1  UNL1       -0.2082
      9 C         142.7738  142.0507  165.5373 C.ar    1  UNL1        0.1192
     10 C         143.0443  142.4433  166.9595 C.ar    1  UNL1        0.0326
     11 C         142.0029  142.2083  168.0134 C.ar    1  UNL1        0.0698
     12 C         140.6913  141.5809  167.6450 C.ar    1  UNL1        0.0091
     13 C         140.4208  141.1883  166.2228 C.ar    1  UNL1        0.0143
     14 C         141.4621  141.4232  165.1689 C.ar    1  UNL1        0.1607
     15 O         141.4800  141.1427  163.6955 O.2     1  UNL1       -0.4349
     16 C         139.1091  140.5608  165.8544 C.3     1  UNL1        0.0254
     17 C         138.6509  139.3154  166.5536 C.3     1  UNL1        0.0048
     18 C         138.2556  141.1789  164.7869 C.3     1  UNL1        0.0048
     19 C         142.2734  142.6010  169.4357 C.1     1  UNL1        0.1005
     20 N         142.5438  142.9936  170.8579 N.1     1  UNL1       -0.1908
     21 N         144.8992  142.4817  156.6670 N.am    1  UNL1       -0.3009
     22 C         144.5829  141.2326  157.4350 C.2     1  UNL1        0.2458
     23 O         144.7115  139.8926  156.7734 O.2     1  UNL1       -0.2701
     24 H         144.8148  143.3612  157.1012 H       1  UNL1        0.1497
     25 C         145.3442  142.3906  155.2374 C.3     1  UNL1        0.0896
     26 C         149.6831  141.6890  154.2720 C.3     1  UNL1        0.0223
     27 C         148.6701  141.7546  153.1677 C.3     1  UNL1        0.0044
     28 C         147.2239  141.9885  153.4894 C.3     1  UNL1        0.0020
     29 C         146.7906  142.1567  154.9156 C.3     1  UNL1        0.0196
     30 C         147.8036  142.0911  156.0199 C.3     1  UNL1        0.0020
     31 C         149.2498  141.8572  155.6982 C.3     1  UNL1        0.0044
     32 C         154.5945  143.3804  154.1401 C.3     1  UNL1        0.0310
     33 C         153.5851  142.3008  153.8842 C.ar    1  UNL1       -0.0222
     34 C         154.0220  140.9873  153.3064 C.ar    1  UNL1       -0.0043
     35 C         153.0125  139.9076  153.0505 C.ar    1  UNL1       -0.0006
     36 C         151.5662  140.1416  153.3724 C.ar    1  UNL1       -0.0043
     37 C         151.1294  141.4551  153.9502 C.ar    1  UNL1       -0.0228
     38 C         152.1389  142.5347  154.2061 C.ar    1  UNL1       -0.0085
@<TRIPOS>BOND
     1    32    33    1
     2    33    34   ar
     3    34    35   ar
     4    35    36   ar
     5    36    37   ar
     6    26    37    1
     7    26    27    1
     8    27    28    1
     9    28    29    1
    10    29    25    1
    11    25    21    1
    12    21    22   am
    13    22    23    2
    14    22     1    1
    15     1     2   ar
    16     2     3   ar
    17     3     4   ar
    18     4     7    1
    19     7     8   ar
    20     8     9   ar
    21     9    10   ar
    22    10    11   ar
    23    11    19    1
    24    19    20    3
    25    11    12   ar
    26    12    13   ar
    27    13    16    1
    28    16    17    1
    29    16    18    1
    30    13    14   ar
    31    14    15   ar
    32     4     5   ar
    33     5     6   ar
    34    29    30    1
    35    30    31    1
    36    37    38   ar
    37    38    33   ar
    38    31    26    1
    39     6     1   ar
    40    15     7   ar
    41    14     9   ar
    42    21    24    1
@<TRIPOS>MOLECULE
*****
 38 42 0 0 0
SMALL
GASTEIGER

@<TRIPOS>ATOM
      1 C         142.4106  138.9657  159.8640 C.ar    1  UNL1        0.0534
      2 C         143.4905  139.7996  160.4872 C.ar    1  UNL1        0.0047
      3 C         143.3621  140.2504  161.9121 C.ar    1  UNL1        0.0048
      4 C         142.1537  139.8672  162.7139 C.ar    1  UNL1        0.0536
      5 C         141.0738  139.0332  162.0908 C.ar    1  UNL1        0.0048
      6 C         141.2022  138.5824  160.6658 C.ar    1  UNL1        0.0047
      7 C         142.0252  140.3179  164.1388 C.ar    1  UNL1        0.2296
      8 N         142.9785  141.2171  164.8685 N.ar    1  UNL1       -0.2082
      9 C         142.4633  141.4035  166.2648 C.ar    1  UNL1        0.1192
     10 C         142.9879  142.1858  167.4321 C.ar    1  UNL1        0.0326
     11 C         142.2406  142.1841  168.7328 C.ar    1  UNL1        0.0698
     12 C         140.9689  141.4000  168.8661 C.ar    1  UNL1        0.0091
     13 C         140.4443  140.6177  167.6988 C.ar    1  UNL1        0.0143
     14 C         141.1915  140.6194  166.3981 C.ar    1  UNL1        0.1607
     15 O         140.9207  139.9484  165.0841 O.2     1  UNL1       -0.4349
     16 C         139.1725  139.8336  167.8321 C.3     1  UNL1        0.0254
     17 C         138.5696  139.1721  166.6284 C.3     1  UNL1        0.0048
     18 C         138.5036  139.7110  169.1692 C.3     1  UNL1        0.0048
     19 C         142.7653  142.9665  169.9002 C.1     1  UNL1        0.1005
     20 N         143.2899  143.7488  171.0675 N.1     1  UNL1       -0.1908
     21 N         141.4849  137.6373  157.8322 N.am    1  UNL1       -0.3009
     22 C         142.5391  138.5149  158.4391 C.2     1  UNL1        0.2458
     23 O         143.7218  138.9419  157.6212 O.2     1  UNL1       -0.2701
     24 H         140.7086  137.3571  158.3691 H       1  UNL1        0.1497
     25 C         141.6134  137.1866  156.4073 C.3     1  UNL1        0.0896
     26 C         143.0293  133.0157  155.4858 C.3     1  UNL1        0.0223
     27 C         141.8117  133.5628  154.8016 C.3     1  UNL1        0.0044
     28 C         141.3397  134.9530  155.1087 C.3     1  UNL1        0.0020
     29 C         142.0854  135.7962  156.1001 C.3     1  UNL1        0.0196
     30 C         143.3029  135.2492  156.7844 C.3     1  UNL1        0.0020
     31 C         143.7750  133.8590  156.4773 C.3     1  UNL1        0.0044
     32 C         144.7882  128.4007  157.1008 C.3     1  UNL1        0.0310
     33 C         144.3807  129.3179  155.9861 C.ar    1  UNL1       -0.0222
     34 C         144.4452  128.8449  154.5641 C.ar    1  UNL1       -0.0043
     35 C         144.0377  129.7621  153.4493 C.ar    1  UNL1       -0.0006
     36 C         143.5657  131.1524  153.7566 C.ar    1  UNL1       -0.0043
     37 C         143.5013  131.6255  155.1786 C.ar    1  UNL1       -0.0228
     38 C         143.9088  130.7082  156.2934 C.ar    1  UNL1       -0.0085
@<TRIPOS>BOND
     1    32    33    1
     2    33    34   ar
     3    34    35   ar
     4    35    36   ar
     5    36    37   ar
     6    26    37    1
     7    26    27    1
     8    27    28    1
     9    28    29    1
    10    29    25    1
    11    25    21    1
    12    21    22   am
    13    22    23    2
    14    22     1    1
    15     1     2   ar
    16     2     3   ar
    17     3     4   ar
    18     4     7    1
    19     7     8   ar
    20     8     9   ar
    21     9    10   ar
    22    10    11   ar
    23    11    19    1
    24    19    20    3
    25    11    12   ar
    26    12    13   ar
    27    13    16    1
    28    16    17    1
    29    16    18    1
    30    13    14   ar
    31    14    15   ar
    32     4     5   ar
    33     5     6   ar
    34    29    30    1
    35    30    31    1
    36    37    38   ar
    37    38    33   ar
    38    31    26    1
    39     6     1   ar
    40    15     7   ar
    41    14     9   ar
    42    21    24    1
@<TRIPOS>MOLECULE
*****
 38 42 0 0 0
SMALL
GASTEIGER

@<TRIPOS>ATOM
      1 C         143.4008  139.7678  157.6607 C.ar    1  UNL1        0.0534
      2 C         142.3550  138.7334  157.9543 C.ar    1  UNL1        0.0047
      3 C         141.6635  138.7225  159.2854 C.ar    1  UNL1        0.0048
      4 C         142.0180  139.7460  160.3230 C.ar    1  UNL1        0.0536
      5 C         143.0639  140.7804  160.0295 C.ar    1  UNL1        0.0048
      6 C         143.7553  140.7914  158.6984 C.ar    1  UNL1        0.0047
      7 C         141.3267  139.7352  161.6542 C.ar    1  UNL1        0.2296
      8 N         140.3576  138.6965  162.1359 N.ar    1  UNL1       -0.2082
      9 C         139.9151  139.0805  163.5167 C.ar    1  UNL1        0.1192
     10 C         138.9686  138.4332  164.4837 C.ar    1  UNL1        0.0326
     11 C         138.7177  139.0618  165.8223 C.ar    1  UNL1        0.0698
     12 C         139.4132  140.3377  166.1939 C.ar    1  UNL1        0.0091
     13 C         140.3597  140.9851  165.2270 C.ar    1  UNL1        0.0143
     14 C         140.6106  140.3565  163.8884 C.ar    1  UNL1        0.1607
     15 O         141.4831  140.7611  162.7372 O.2     1  UNL1       -0.4349
     16 C         141.0552  142.2611  165.5986 C.3     1  UNL1        0.0254
     17 C         140.6200  143.5588  164.9850 C.3     1  UNL1        0.0048
     18 C         142.1861  142.2393  166.5840 C.3     1  UNL1        0.0048
     19 C         137.7711  138.4144  166.7894 C.1     1  UNL1        0.1005
     20 N         136.8246  137.7671  167.7564 N.1     1  UNL1       -0.1908
     21 N         144.2866  141.0725  155.5961 N.am    1  UNL1       -0.3009
     22 C         144.0922  139.7787  156.3296 C.2     1  UNL1        0.2458
     23 O         144.5890  138.4957  155.7320 O.2     1  UNL1       -0.2701
     24 H         143.9606  141.9146  155.9884 H       1  UNL1        0.1497
     25 C         144.9780  141.0834  154.2650 C.3     1  UNL1        0.0896
     26 C         149.4280  141.7160  154.0458 C.3     1  UNL1        0.0223
     27 C         148.7368  141.7041  155.3770 C.3     1  UNL1        0.0044
     28 C         147.2535  141.4932  155.4501 C.3     1  UNL1        0.0020
     29 C         146.4614  141.2943  154.1920 C.3     1  UNL1        0.0196
     30 C         147.1526  141.3062  152.8608 C.3     1  UNL1        0.0020
     31 C         148.6359  141.5170  152.7877 C.3     1  UNL1        0.0044
     32 C         153.5751  144.7791  154.6929 C.3     1  UNL1        0.0310
     33 C         152.9848  143.4584  154.2963 C.ar    1  UNL1       -0.0222
     34 C         153.8779  142.3485  153.8268 C.ar    1  UNL1       -0.0043
     35 C         153.2877  141.0277  153.4302 C.ar    1  UNL1       -0.0006
     36 C         151.8043  140.8169  153.5033 C.ar    1  UNL1       -0.0043
     37 C         150.9113  141.9268  153.9728 C.ar    1  UNL1       -0.0228
     38 C         151.5016  143.2476  154.3694 C.ar    1  UNL1       -0.0085
@<TRIPOS>BOND
     1    32    33    1
     2    33    34   ar
     3    34    35   ar
     4    35    36   ar
     5    36    37   ar
     6    26    37    1
     7    26    27    1
     8    27    28    1
     9    28    29    1
    10    29    25    1
    11    25    21    1
    12    21    22   am
    13    22    23    2
    14    22     1    1
    15     1     2   ar
    16     2     3   ar
    17     3     4   ar
    18     4     7    1
    19     7     8   ar
    20     8     9   ar
    21     9    10   ar
    22    10    11   ar
    23    11    19    1
    24    19    20    3
    25    11    12   ar
    26    12    13   ar
    27    13    16    1
    28    16    17    1
    29    16    18    1
    30    13    14   ar
    31    14    15   ar
    32     4     5   ar
    33     5     6   ar
    34    29    30    1
    35    30    31    1
    36    37    38   ar
    37    38    33   ar
    38    31    26    1
    39     6     1   ar
    40    15     7   ar
    41    14     9   ar
    42    21    24    1
@<TRIPOS>MOLECULE
*****
 38 42 0 0 0
SMALL
GASTEIGER

@<TRIPOS>ATOM
      1 C         143.3813  139.8814  160.1890 C.ar    1  UNL1        0.0534
      2 C         143.1655  138.4538  160.5954 C.ar    1  UNL1        0.0047
      3 C         142.8993  137.4090  159.5524 C.ar    1  UNL1        0.0048
      4 C         142.8489  137.7920  158.1030 C.ar    1  UNL1        0.0536
      5 C         143.0648  139.2197  157.6966 C.ar    1  UNL1        0.0048
      6 C         143.3310  140.2644  158.7396 C.ar    1  UNL1        0.0047
      7 C         142.5827  136.7473  157.0600 C.ar    1  UNL1        0.2296
      8 N         142.8397  135.2762  157.1999 N.ar    1  UNL1       -0.2082
      9 C         142.4286  134.6101  155.9204 C.ar    1  UNL1        0.1192
     10 C         142.4536  133.1757  155.4825 C.ar    1  UNL1        0.0326
     11 C         141.9674  132.8008  154.1138 C.ar    1  UNL1        0.0698
     12 C         141.4564  133.8602  153.1831 C.ar    1  UNL1        0.0091
     13 C         141.4314  135.2947  153.6210 C.ar    1  UNL1        0.0143
     14 C         141.9175  135.6696  154.9896 C.ar    1  UNL1        0.1607
     15 O         142.0127  136.9905  155.6940 O.2     1  UNL1       -0.4349
     16 C         140.9203  136.3542  152.6903 C.3     1  UNL1        0.0254
     17 C         141.8626  137.3773  152.1288 C.3     1  UNL1        0.0048
     18 C         139.4669  136.3905  152.3210 C.3     1  UNL1        0.0048
     19 C         141.9924  131.3663  153.6759 C.1     1  UNL1        0.1005
     20 N         142.0174  129.9318  153.2380 N.1     1  UNL1       -0.1908
     21 N         142.7156  142.0920  161.3806 N.am    1  UNL1       -0.3009
     22 C         143.6476  140.9261  161.2320 C.2     1  UNL1        0.2458
     23 O         144.8457  140.8048  162.1263 O.2     1  UNL1       -0.2701
     24 H         141.9293  142.1715  160.7936 H       1  UNL1        0.1497
     25 C         142.9818  143.1366  162.4235 C.3     1  UNL1        0.0896
     26 C         141.8316  142.3826  166.7082 C.3     1  UNL1        0.0223
     27 C         143.2650  142.2599  166.2838 C.3     1  UNL1        0.0044
     28 C         143.6485  142.5112  164.8556 C.3     1  UNL1        0.0020
     29 C         142.5984  142.8853  163.8519 C.3     1  UNL1        0.0196
     30 C         141.1650  143.0079  164.2763 C.3     1  UNL1        0.0020
     31 C         140.7815  142.7566  165.7045 C.3     1  UNL1        0.0044
     32 C         138.5546  140.3649  170.1997 C.3     1  UNL1        0.0310
     33 C         139.8098  141.1224  169.8823 C.ar    1  UNL1       -0.0222
     34 C         140.6815  141.6285  170.9930 C.ar    1  UNL1       -0.0043
     35 C         141.9367  142.3860  170.6755 C.ar    1  UNL1       -0.0006
     36 C         142.3200  142.6373  169.2472 C.ar    1  UNL1       -0.0043
     37 C         141.4482  142.1312  168.1365 C.ar    1  UNL1       -0.0228
     38 C         140.1930  141.3737  168.4540 C.ar    1  UNL1       -0.0085
@<TRIPOS>BOND
     1    32    33    1
     2    33    34   ar
     3    34    35   ar
     4    35    36   ar
     5    36    37   ar
     6    26    37    1
     7    26    27    1
     8    27    28    1
     9    28    29    1
    10    29    25    1
    11    25    21    1
    12    21    22   am
    13    22    23    2
    14    22     1    1
    15     1     2   ar
    16     2     3   ar
    17     3     4   ar
    18     4     7    1
    19     7     8   ar
    20     8     9   ar
    21     9    10   ar
    22    10    11   ar
    23    11    19    1
    24    19    20    3
    25    11    12   ar
    26    12    13   ar
    27    13    16    1
    28    16    17    1
    29    16    18    1
    30    13    14   ar
    31    14    15   ar
    32     4     5   ar
    33     5     6   ar
    34    29    30    1
    35    30    31    1
    36    37    38   ar
    37    38    33   ar
    38    31    26    1
    39     6     1   ar
    40    15     7   ar
    41    14     9   ar
    42    21    24    1
@<TRIPOS>MOLECULE
*****
 38 42 0 0 0
SMALL
GASTEIGER

@<TRIPOS>ATOM
      1 C         141.6299  139.1275  160.9677 C.ar    1  UNL1        0.0534
      2 C         142.0600  140.2889  161.8139 C.ar    1  UNL1        0.0047
      3 C         141.5475  140.4251  163.2171 C.ar    1  UNL1        0.0048
      4 C         140.6049  139.3998  163.7740 C.ar    1  UNL1        0.0536
      5 C         140.1748  138.2384  162.9278 C.ar    1  UNL1        0.0048
      6 C         140.6873  138.1022  161.5246 C.ar    1  UNL1        0.0047
      7 C         140.0924  139.5359  165.1772 C.ar    1  UNL1        0.2296
      8 N         138.9149  138.8120  165.7598 N.ar    1  UNL1       -0.2082
      9 C         138.7622  139.2486  167.1867 C.ar    1  UNL1        0.1192
     10 C         137.7768  138.8697  168.2523 C.ar    1  UNL1        0.0326
     11 C         137.8746  139.4844  169.6171 C.ar    1  UNL1        0.0698
     12 C         138.9577  140.4780  169.9163 C.ar    1  UNL1        0.0091
     13 C         139.9431  140.8570  168.8507 C.ar    1  UNL1        0.0143
     14 C         139.8453  140.2422  167.4860 C.ar    1  UNL1        0.1607
     15 O         140.6675  140.4198  166.2440 O.2     1  UNL1       -0.4349
     16 C         141.0262  141.8506  169.1500 C.3     1  UNL1        0.0254
     17 C         140.6691  143.2468  169.5661 C.3     1  UNL1        0.0048
     18 C         142.4665  141.4481  169.0330 C.3     1  UNL1        0.0048
     19 C         136.8892  139.1055  170.6827 C.1     1  UNL1        0.1005
     20 N         135.9038  138.7265  171.7482 N.1     1  UNL1       -0.1908
     21 N         141.1778  138.8738  158.4219 N.am    1  UNL1       -0.3009
     22 C         142.1424  138.9913  159.5646 C.2     1  UNL1        0.2458
     23 O         143.6195  138.9728  159.3041 O.2     1  UNL1       -0.2701
     24 H         140.2083  138.8859  158.5929 H       1  UNL1        0.1497
     25 C         141.6903  138.7376  157.0188 C.3     1  UNL1        0.0896
     26 C         142.5787  134.6608  155.3335 C.3     1  UNL1        0.0223
     27 C         143.6831  135.4836  155.9278 C.3     1  UNL1        0.0044
     28 C         143.3870  136.8425  156.4896 C.3     1  UNL1        0.0020
     29 C         141.9865  137.3786  156.4570 C.3     1  UNL1        0.0196
     30 C         140.8821  136.5558  155.8627 C.3     1  UNL1        0.0020
     31 C         141.1781  135.1969  155.3009 C.3     1  UNL1        0.0044
     32 C         144.9250  130.0414  155.7290 C.3     1  UNL1        0.0310
     33 C         144.0480  130.9921  154.9694 C.ar    1  UNL1       -0.0222
     34 C         143.4670  130.5839  153.6481 C.ar    1  UNL1       -0.0043
     35 C         142.5900  131.5346  152.8885 C.ar    1  UNL1       -0.0006
     36 C         142.2939  132.8936  153.4504 C.ar    1  UNL1       -0.0043
     37 C         142.8748  133.3018  154.7717 C.ar    1  UNL1       -0.0228
     38 C         143.7519  132.3510  155.5312 C.ar    1  UNL1       -0.0085
@<TRIPOS>BOND
     1    32    33    1
     2    33    34   ar
     3    34    35   ar
     4    35    36   ar
     5    36    37   ar
     6    26    37    1
     7    26    27    1
     8    27    28    1
     9    28    29    1
    10    29    25    1
    11    25    21    1
    12    21    22   am
    13    22    23    2
    14    22     1    1
    15     1     2   ar
    16     2     3   ar
    17     3     4   ar
    18     4     7    1
    19     7     8   ar
    20     8     9   ar
    21     9    10   ar
    22    10    11   ar
    23    11    19    1
    24    19    20    3
    25    11    12   ar
    26    12    13   ar
    27    13    16    1
    28    16    17    1
    29    16    18    1
    30    13    14   ar
    31    14    15   ar
    32     4     5   ar
    33     5     6   ar
    34    29    30    1
    35    30    31    1
    36    37    38   ar
    37    38    33   ar
    38    31    26    1
    39     6     1   ar
    40    15     7   ar
    41    14     9   ar
    42    21    24    1
