@<TRIPOS>MOLECULE
*****
 27 30 0 0 0
SMALL
GASTEIGER

@<TRIPOS>ATOM
      1 O         137.9733  140.0199  170.1778 O.2     1  UNL1       -0.2699
      2 C         139.1303  140.2841  169.2605 C.2     1  UNL1        0.2494
      3 N         139.1640  139.6602  167.8967 N.am    1  UNL1       -0.2686
      4 C         138.0406  138.7722  167.4504 C.3     1  UNL1        0.1005
      5 C         138.0743  138.1483  166.0867 C.3     1  UNL1        0.0703
      6 C         139.2313  138.4125  165.1694 C.ar    1  UNL1        0.0955
      7 N         139.5379  137.9406  163.7789 N.ar    1  UNL1       -0.2136
      8 C         140.8509  138.5370  163.3660 C.ar    1  UNL1        0.2500
      9 O         141.3556  139.3776  164.5013 O.2     1  UNL1       -0.4379
     10 C         140.3547  139.3006  165.6158 C.ar    1  UNL1        0.1580
     11 C         140.3210  139.9245  166.9795 C.3     1  UNL1        0.1598
     12 C         140.2537  141.1722  169.7069 C.ar    1  UNL1        0.0537
     13 C         140.1519  142.6580  169.5274 C.ar    1  UNL1        0.0068
     14 C         141.2754  143.5461  169.9738 C.ar    1  UNL1        0.0298
     15 C         142.5005  142.9484  170.5997 C.ar    1  UNL1        0.1401
     16 F         143.6239  143.8365  171.0460 F       1  UNL1       -0.2042
     17 C         142.6023  141.4627  170.7791 C.ar    1  UNL1        0.0298
     18 C         141.4789  140.5746  170.3328 C.ar    1  UNL1        0.0068
     19 C         141.5384  138.3294  162.0491 C.3     1  UNL1        0.2895
     20 O         143.0340  138.2309  161.9912 O.3     1  UNL1       -0.4654
     21 C         143.8789  139.4062  162.3844 C.ar    1  UNL1        0.1415
     22 C         144.5760  139.4179  163.7125 C.ar    1  UNL1        0.0371
     23 C         145.4209  140.5933  164.1057 C.ar    1  UNL1        0.0054
     24 C         145.5686  141.7570  163.1708 C.ar    1  UNL1        0.0298
     25 C         144.8715  141.7453  161.8427 C.ar    1  UNL1        0.1432
     26 F         145.0192  142.9090  160.9079 F       1  UNL1       -0.2041
     27 C         144.0266  140.5699  161.4495 C.ar    1  UNL1        0.0665
@<TRIPOS>BOND
     1     1     2    2
     2     2    12    1
     3    12    13   ar
     4    13    14   ar
     5    14    15   ar
     6    15    16    1
     7    15    17   ar
     8    17    18   ar
     9     2     3   am
    10     3     4    1
    11     4     5    1
    12     5     6    1
    13     6     7   ar
    14     7     8   ar
    15     8    19    1
    16    19    20    1
    17    20    21    1
    18    21    22   ar
    19    22    23   ar
    20    23    24   ar
    21    24    25   ar
    22    25    26    1
    23    25    27   ar
    24     8     9   ar
    25     9    10   ar
    26    10    11    1
    27    18    12   ar
    28    11     3    1
    29    10     6   ar
    30    27    21   ar
@<TRIPOS>MOLECULE
*****
 27 30 0 0 0
SMALL
GASTEIGER

@<TRIPOS>ATOM
      1 O         143.2893  138.7227  168.2723 O.2     1  UNL1       -0.2699
      2 C         142.1449  139.5048  167.6990 C.2     1  UNL1        0.2494
      3 N         141.7375  139.2997  166.2700 N.am    1  UNL1       -0.2686
      4 C         142.4745  138.3125  165.4143 C.3     1  UNL1        0.1005
      5 C         142.0671  138.1074  163.9854 C.3     1  UNL1        0.0703
      6 C         140.9227  138.8896  163.4121 C.ar    1  UNL1        0.0955
      7 N         140.2984  138.9013  162.0482 N.ar    1  UNL1       -0.2136
      8 C         139.1755  139.8958  162.0610 C.ar    1  UNL1        0.2500
      9 O         139.1059  140.4987  163.4327 O.2     1  UNL1       -0.4379
     10 C         140.1857  139.8768  164.2678 C.ar    1  UNL1        0.1580
     11 C         140.5931  140.0819  165.6967 C.3     1  UNL1        0.1598
     12 C         141.4079  140.4920  168.5547 C.ar    1  UNL1        0.0537
     13 C         140.1345  140.0892  169.2374 C.ar    1  UNL1        0.0068
     14 C         139.3975  141.0765  170.0931 C.ar    1  UNL1        0.0298
     15 C         139.9339  142.4665  170.2660 C.ar    1  UNL1        0.1401
     16 F         139.1969  143.4537  171.1217 F       1  UNL1       -0.2042
     17 C         141.2073  142.8694  169.5833 C.ar    1  UNL1        0.0298
     18 C         141.9443  141.8822  168.7276 C.ar    1  UNL1        0.0068
     19 C         138.2796  140.2290  160.9050 C.3     1  UNL1        0.2895
     20 O         137.6392  141.5827  160.8183 O.3     1  UNL1       -0.4654
     21 C         138.2241  142.7389  161.5739 C.ar    1  UNL1        0.1415
     22 C         139.4065  143.4764  161.0189 C.ar    1  UNL1        0.0371
     23 C         139.9915  144.6326  161.7745 C.ar    1  UNL1        0.0054
     24 C         139.3940  145.0513  163.0852 C.ar    1  UNL1        0.0298
     25 C         138.2116  144.3138  163.6401 C.ar    1  UNL1        0.1432
     26 F         137.6142  144.7325  164.9507 F       1  UNL1       -0.2041
     27 C         137.6267  143.1576  162.8845 C.ar    1  UNL1        0.0665
@<TRIPOS>BOND
     1     1     2    2
     2     2    12    1
     3    12    13   ar
     4    13    14   ar
     5    14    15   ar
     6    15    16    1
     7    15    17   ar
     8    17    18   ar
     9     2     3   am
    10     3     4    1
    11     4     5    1
    12     5     6    1
    13     6     7   ar
    14     7     8   ar
    15     8    19    1
    16    19    20    1
    17    20    21    1
    18    21    22   ar
    19    22    23   ar
    20    23    24   ar
    21    24    25   ar
    22    25    26    1
    23    25    27   ar
    24     8     9   ar
    25     9    10   ar
    26    10    11    1
    27    18    12   ar
    28    11     3    1
    29    10     6   ar
    30    27    21   ar
@<TRIPOS>MOLECULE
*****
 27 30 0 0 0
SMALL
GASTEIGER

@<TRIPOS>ATOM
      1 O         138.4924  139.5250  168.3831 O.2     1  UNL1       -0.2699
      2 C         139.7994  139.6707  167.6616 C.2     1  UNL1        0.2494
      3 N         139.9557  139.1214  166.2745 N.am    1  UNL1       -0.2686
      4 C         138.8050  138.4264  165.6090 C.3     1  UNL1        0.1005
      5 C         138.9614  137.8772  164.2220 C.3     1  UNL1        0.0703
      6 C         140.2683  138.0229  163.5005 C.ar    1  UNL1        0.0955
      7 N         140.7162  137.5865  162.1370 N.ar    1  UNL1       -0.2136
      8 C         142.1437  138.0118  161.9599 C.ar    1  UNL1        0.2500
      9 O         142.5780  138.7110  163.2138 O.2     1  UNL1       -0.4379
     10 C         141.4190  138.7179  164.1660 C.ar    1  UNL1        0.1580
     11 C         141.2627  139.2671  165.5530 C.3     1  UNL1        0.1598
     12 C         140.9501  140.3657  168.3271 C.ar    1  UNL1        0.0537
     13 C         141.2233  141.8115  168.0353 C.ar    1  UNL1        0.0068
     14 C         142.3740  142.5065  168.7009 C.ar    1  UNL1        0.0298
     15 C         143.2515  141.7557  169.6581 C.ar    1  UNL1        0.1401
     16 F         144.4021  142.4507  170.3236 F       1  UNL1       -0.2042
     17 C         142.9783  140.3100  169.9498 C.ar    1  UNL1        0.0298
     18 C         141.8276  139.6150  169.2844 C.ar    1  UNL1        0.0068
     19 C         142.9885  137.7788  160.7425 C.3     1  UNL1        0.2895
     20 O         144.0564  138.7645  160.3708 O.3     1  UNL1       -0.4654
     21 C         143.7658  140.2355  160.4104 C.ar    1  UNL1        0.1415
     22 C         142.7881  140.8332  159.4424 C.ar    1  UNL1        0.0371
     23 C         142.4975  142.3042  159.4820 C.ar    1  UNL1        0.0054
     24 C         143.1846  143.1776  160.4896 C.ar    1  UNL1        0.0298
     25 C         144.1623  142.5800  161.4575 C.ar    1  UNL1        0.1432
     26 F         144.8494  143.4533  162.4650 F       1  UNL1       -0.2041
     27 C         144.4529  141.1089  161.4179 C.ar    1  UNL1        0.0665
@<TRIPOS>BOND
     1     1     2    2
     2     2    12    1
     3    12    13   ar
     4    13    14   ar
     5    14    15   ar
     6    15    16    1
     7    15    17   ar
     8    17    18   ar
     9     2     3   am
    10     3     4    1
    11     4     5    1
    12     5     6    1
    13     6     7   ar
    14     7     8   ar
    15     8    19    1
    16    19    20    1
    17    20    21    1
    18    21    22   ar
    19    22    23   ar
    20    23    24   ar
    21    24    25   ar
    22    25    26    1
    23    25    27   ar
    24     8     9   ar
    25     9    10   ar
    26    10    11    1
    27    18    12   ar
    28    11     3    1
    29    10     6   ar
    30    27    21   ar
@<TRIPOS>MOLECULE
*****
 27 30 0 0 0
SMALL
GASTEIGER

@<TRIPOS>ATOM
      1 O         143.3518  138.4187  168.3850 O.2     1  UNL1       -0.2699
      2 C         142.7230  139.6092  167.7235 C.2     1  UNL1        0.2494
      3 N         142.9363  139.8530  166.2589 N.am    1  UNL1       -0.2686
      4 C         143.7784  138.9065  165.4558 C.3     1  UNL1        0.1005
      5 C         143.9916  139.1504  163.9912 C.3     1  UNL1        0.0703
      6 C         143.3629  140.3408  163.3298 C.ar    1  UNL1        0.0955
      7 N         143.3950  140.8359  161.9141 N.ar    1  UNL1       -0.2136
      8 C         142.5728  142.0884  161.8424 C.ar    1  UNL1        0.2500
      9 O         142.0326  142.3674  163.2136 O.2     1  UNL1       -0.4379
     10 C         142.5209  141.2874  164.1329 C.ar    1  UNL1        0.1580
     11 C         142.3076  141.0435  165.5974 C.3     1  UNL1        0.1598
     12 C         141.8810  140.5557  168.5266 C.ar    1  UNL1        0.0537
     13 C         142.4557  141.8609  168.9916 C.ar    1  UNL1        0.0068
     14 C         141.6136  142.8075  169.7948 C.ar    1  UNL1        0.0298
     15 C         140.1969  142.4488  170.1329 C.ar    1  UNL1        0.1401
     16 F         139.3549  143.3954  170.9360 F       1  UNL1       -0.2042
     17 C         139.6223  141.1436  169.6679 C.ar    1  UNL1        0.0298
     18 C         140.4643  140.1971  168.8648 C.ar    1  UNL1        0.0068
     19 C         142.3329  142.9166  160.6149 C.3     1  UNL1        0.2895
     20 O         140.9307  143.2009  160.1642 O.3     1  UNL1       -0.4654
     21 C         139.8525  143.4464  161.1777 C.ar    1  UNL1        0.1415
     22 C         139.7346  144.7884  161.8372 C.ar    1  UNL1        0.0371
     23 C         138.6563  145.0339  162.8507 C.ar    1  UNL1        0.0054
     24 C         137.6959  143.9373  163.2046 C.ar    1  UNL1        0.0298
     25 C         137.8139  142.5952  162.5451 C.ar    1  UNL1        0.1432
     26 F         136.8536  141.4986  162.8989 F       1  UNL1       -0.2041
     27 C         138.8922  142.3498  161.5316 C.ar    1  UNL1        0.0665
@<TRIPOS>BOND
     1     1     2    2
     2     2    12    1
     3    12    13   ar
     4    13    14   ar
     5    14    15   ar
     6    15    16    1
     7    15    17   ar
     8    17    18   ar
     9     2     3   am
    10     3     4    1
    11     4     5    1
    12     5     6    1
    13     6     7   ar
    14     7     8   ar
    15     8    19    1
    16    19    20    1
    17    20    21    1
    18    21    22   ar
    19    22    23   ar
    20    23    24   ar
    21    24    25   ar
    22    25    26    1
    23    25    27   ar
    24     8     9   ar
    25     9    10   ar
    26    10    11    1
    27    18    12   ar
    28    11     3    1
    29    10     6   ar
    30    27    21   ar
@<TRIPOS>MOLECULE
*****
 27 30 0 0 0
SMALL
GASTEIGER

@<TRIPOS>ATOM
      1 O         137.8427  138.4578  167.3418 O.2     1  UNL1       -0.2699
      2 C         138.8598  139.5500  167.1906 C.2     1  UNL1        0.2494
      3 N         138.9837  140.2843  165.8885 N.am    1  UNL1       -0.2686
      4 C         138.0906  139.9266  164.7377 C.3     1  UNL1        0.1005
      5 C         138.2146  140.6610  163.4357 C.3     1  UNL1        0.0703
      6 C         139.2317  141.7531  163.2845 C.ar    1  UNL1        0.0955
      7 N         139.5822  142.6455  162.1308 N.ar    1  UNL1       -0.2136
      8 C         140.6919  143.5547  162.5686 C.ar    1  UNL1        0.2500
      9 O         141.0272  143.2243  163.9928 O.2     1  UNL1       -0.4379
     10 C         140.1248  142.1108  164.4352 C.ar    1  UNL1        0.1580
     11 C         140.0008  141.3765  165.7372 C.3     1  UNL1        0.1598
     12 C         139.7529  139.9077  168.3414 C.ar    1  UNL1        0.0537
     13 C         141.2235  139.6219  168.2665 C.ar    1  UNL1        0.0068
     14 C         142.1166  139.9796  169.4174 C.ar    1  UNL1        0.0298
     15 C         141.5391  140.6232  170.6430 C.ar    1  UNL1        0.1401
     16 F         142.4322  140.9809  171.7938 F       1  UNL1       -0.2042
     17 C         140.0685  140.9090  170.7179 C.ar    1  UNL1        0.0298
     18 C         139.1754  140.5513  169.5671 C.ar    1  UNL1        0.0068
     19 C         141.3507  144.6093  161.7296 C.3     1  UNL1        0.2895
     20 O         142.8084  144.4982  161.3937 O.3     1  UNL1       -0.4654
     21 C         143.6293  143.3854  161.9749 C.ar    1  UNL1        0.1415
     22 C         144.3965  143.6039  163.2452 C.ar    1  UNL1        0.0371
     23 C         145.2174  142.4912  163.8264 C.ar    1  UNL1        0.0054
     24 C         145.2711  141.1598  163.1373 C.ar    1  UNL1        0.0298
     25 C         144.5039  140.9414  161.8670 C.ar    1  UNL1        0.1432
     26 F         144.5576  139.6101  161.1779 F       1  UNL1       -0.2041
     27 C         143.6830  142.0542  161.2858 C.ar    1  UNL1        0.0665
@<TRIPOS>BOND
     1     1     2    2
     2     2    12    1
     3    12    13   ar
     4    13    14   ar
     5    14    15   ar
     6    15    16    1
     7    15    17   ar
     8    17    18   ar
     9     2     3   am
    10     3     4    1
    11     4     5    1
    12     5     6    1
    13     6     7   ar
    14     7     8   ar
    15     8    19    1
    16    19    20    1
    17    20    21    1
    18    21    22   ar
    19    22    23   ar
    20    23    24   ar
    21    24    25   ar
    22    25    26    1
    23    25    27   ar
    24     8     9   ar
    25     9    10   ar
    26    10    11    1
    27    18    12   ar
    28    11     3    1
    29    10     6   ar
    30    27    21   ar
@<TRIPOS>MOLECULE
*****
 27 30 0 0 0
SMALL
GASTEIGER

@<TRIPOS>ATOM
      1 O         138.1618  138.3721  166.2405 O.2     1  UNL1       -0.2699
      2 C         138.9929  139.6194  166.1825 C.2     1  UNL1        0.2494
      3 N         138.7344  140.6441  165.1179 N.am    1  UNL1       -0.2686
      4 C         137.6449  140.4214  164.1114 C.3     1  UNL1        0.1005
      5 C         137.3864  141.4460  163.0469 C.3     1  UNL1        0.0703
      6 C         138.2175  142.6934  162.9889 C.ar    1  UNL1        0.0955
      7 N         138.1952  143.8722  162.0614 N.ar    1  UNL1       -0.2136
      8 C         139.2710  144.8233  162.4948 C.ar    1  UNL1        0.2500
      9 O         139.9581  144.2325  163.6901 O.2     1  UNL1       -0.4379
     10 C         139.3070  142.9161  163.9955 C.ar    1  UNL1        0.1580
     11 C         139.5655  141.8915  165.0600 C.3     1  UNL1        0.1598
     12 C         140.0825  139.8422  167.1891 C.ar    1  UNL1        0.0537
     13 C         141.5132  139.5944  166.8129 C.ar    1  UNL1        0.0068
     14 C         142.6028  139.8172  167.8196 C.ar    1  UNL1        0.0298
     15 C         142.2616  140.2876  169.2023 C.ar    1  UNL1        0.1401
     16 F         143.3511  140.5104  170.2089 F       1  UNL1       -0.2042
     17 C         140.8308  140.5354  169.5786 C.ar    1  UNL1        0.0298
     18 C         139.7413  140.3127  168.5720 C.ar    1  UNL1        0.0068
     19 C         139.6016  146.1352  161.8468 C.3     1  UNL1        0.2895
     20 O         139.6884  146.2326  160.3525 O.3     1  UNL1       -0.4654
     21 C         140.7102  145.4269  159.6064 C.ar    1  UNL1        0.1415
     22 C         140.8754  145.6101  158.1268 C.ar    1  UNL1        0.0371
     23 C         141.8972  144.8044  157.3808 C.ar    1  UNL1        0.0054
     24 C         142.7539  143.8154  158.1143 C.ar    1  UNL1        0.0298
     25 C         142.5887  143.6321  159.5939 C.ar    1  UNL1        0.1432
     26 F         143.4453  142.6432  160.3274 F       1  UNL1       -0.2041
     27 C         141.5668  144.4379  160.3399 C.ar    1  UNL1        0.0665
@<TRIPOS>BOND
     1     1     2    2
     2     2    12    1
     3    12    13   ar
     4    13    14   ar
     5    14    15   ar
     6    15    16    1
     7    15    17   ar
     8    17    18   ar
     9     2     3   am
    10     3     4    1
    11     4     5    1
    12     5     6    1
    13     6     7   ar
    14     7     8   ar
    15     8    19    1
    16    19    20    1
    17    20    21    1
    18    21    22   ar
    19    22    23   ar
    20    23    24   ar
    21    24    25   ar
    22    25    26    1
    23    25    27   ar
    24     8     9   ar
    25     9    10   ar
    26    10    11    1
    27    18    12   ar
    28    11     3    1
    29    10     6   ar
    30    27    21   ar
@<TRIPOS>MOLECULE
*****
 27 30 0 0 0
SMALL
GASTEIGER

@<TRIPOS>ATOM
      1 O         142.9803  138.2163  169.6358 O.2     1  UNL1       -0.2699
      2 C         142.5202  139.3683  168.7926 C.2     1  UNL1        0.2494
      3 N         142.9182  139.4468  167.3484 N.am    1  UNL1       -0.2686
      4 C         143.7762  138.3732  166.7475 C.3     1  UNL1        0.1005
      5 C         144.1741  138.4516  165.3034 C.3     1  UNL1        0.0703
      6 C         143.7140  139.6037  164.4602 C.ar    1  UNL1        0.0955
      7 N         143.9451  139.9476  163.0185 N.ar    1  UNL1       -0.2136
      8 C         143.2298  141.2338  162.7284 C.ar    1  UNL1        0.2500
      9 O         142.5568  141.6848  163.9908 O.2     1  UNL1       -0.4379
     10 C         142.8560  140.6773  165.0611 C.ar    1  UNL1        0.1580
     11 C         142.4581  140.5989  166.5052 C.3     1  UNL1        0.1598
     12 C         141.6622  140.4420  169.3934 C.ar    1  UNL1        0.0537
     13 C         140.1735  140.2673  169.4522 C.ar    1  UNL1        0.0068
     14 C         139.3155  141.3410  170.0531 C.ar    1  UNL1        0.0298
     15 C         139.9461  142.5893  170.5952 C.ar    1  UNL1        0.1401
     16 F         139.0881  143.6629  171.1961 F       1  UNL1       -0.2042
     17 C         141.4348  142.7640  170.5365 C.ar    1  UNL1        0.0298
     18 C         142.2928  141.6904  169.9356 C.ar    1  UNL1        0.0068
     19 C         143.1939  141.9443  161.4078 C.3     1  UNL1        0.2895
     20 O         143.2594  143.4421  161.3600 O.3     1  UNL1       -0.4654
     21 C         142.0093  144.2532  161.5311 C.ar    1  UNL1        0.1415
     22 C         141.3834  144.9256  160.3453 C.ar    1  UNL1        0.0371
     23 C         140.1333  145.7368  160.5164 C.ar    1  UNL1        0.0054
     24 C         139.5091  145.8756  161.8734 C.ar    1  UNL1        0.0298
     25 C         140.1351  145.2032  163.0592 C.ar    1  UNL1        0.1432
     26 F         139.5110  145.3420  164.4160 F       1  UNL1       -0.2041
     27 C         141.3852  144.3920  162.8880 C.ar    1  UNL1        0.0665
@<TRIPOS>BOND
     1     1     2    2
     2     2    12    1
     3    12    13   ar
     4    13    14   ar
     5    14    15   ar
     6    15    16    1
     7    15    17   ar
     8    17    18   ar
     9     2     3   am
    10     3     4    1
    11     4     5    1
    12     5     6    1
    13     6     7   ar
    14     7     8   ar
    15     8    19    1
    16    19    20    1
    17    20    21    1
    18    21    22   ar
    19    22    23   ar
    20    23    24   ar
    21    24    25   ar
    22    25    26    1
    23    25    27   ar
    24     8     9   ar
    25     9    10   ar
    26    10    11    1
    27    18    12   ar
    28    11     3    1
    29    10     6   ar
    30    27    21   ar
@<TRIPOS>MOLECULE
*****
 27 30 0 0 0
SMALL
GASTEIGER

@<TRIPOS>ATOM
      1 O         143.3520  138.8132  168.0180 O.2     1  UNL1       -0.2699
      2 C         142.0918  139.4671  167.5339 C.2     1  UNL1        0.2494
      3 N         141.5460  139.1317  166.1775 N.am    1  UNL1       -0.2686
      4 C         142.2605  138.1425  165.3052 C.3     1  UNL1        0.1005
      5 C         141.7148  137.8073  163.9488 C.3     1  UNL1        0.0703
      6 C         140.4546  138.4612  163.4648 C.ar    1  UNL1        0.0955
      7 N         139.6838  138.3304  162.1846 N.ar    1  UNL1       -0.2136
      8 C         138.4929  139.2388  162.2658 C.ar    1  UNL1        0.2500
      9 O         138.5277  139.9310  163.5961 O.2     1  UNL1       -0.4379
     10 C         139.7401  139.4504  164.3371 C.ar    1  UNL1        0.1580
     11 C         140.2858  139.7857  165.6935 C.3     1  UNL1        0.1598
     12 C         141.3773  140.4563  168.4062 C.ar    1  UNL1        0.0537
     13 C         141.6772  141.9206  168.2809 C.ar    1  UNL1        0.0068
     14 C         140.9626  142.9099  169.1533 C.ar    1  UNL1        0.0298
     15 C         139.9483  142.4347  170.1509 C.ar    1  UNL1        0.1401
     16 F         139.2338  143.4239  171.0232 F       1  UNL1       -0.2042
     17 C         139.6484  140.9703  170.2762 C.ar    1  UNL1        0.0298
     18 C         140.3629  139.9811  169.4039 C.ar    1  UNL1        0.0068
     19 C         137.4502  139.4228  161.2032 C.3     1  UNL1        0.2895
     20 O         137.7756  140.1945  159.9588 O.3     1  UNL1       -0.4654
     21 C         138.7538  141.3302  160.0148 C.ar    1  UNL1        0.1415
     22 C         140.0033  141.2855  159.1860 C.ar    1  UNL1        0.0371
     23 C         140.9815  142.4212  159.2420 C.ar    1  UNL1        0.0054
     24 C         140.7103  143.6017  160.1269 C.ar    1  UNL1        0.0298
     25 C         139.4608  143.6465  160.9557 C.ar    1  UNL1        0.1432
     26 F         139.1896  144.8269  161.8405 F       1  UNL1       -0.2041
     27 C         138.4826  142.5106  160.8996 C.ar    1  UNL1        0.0665
@<TRIPOS>BOND
     1     1     2    2
     2     2    12    1
     3    12    13   ar
     4    13    14   ar
     5    14    15   ar
     6    15    16    1
     7    15    17   ar
     8    17    18   ar
     9     2     3   am
    10     3     4    1
    11     4     5    1
    12     5     6    1
    13     6     7   ar
    14     7     8   ar
    15     8    19    1
    16    19    20    1
    17    20    21    1
    18    21    22   ar
    19    22    23   ar
    20    23    24   ar
    21    24    25   ar
    22    25    26    1
    23    25    27   ar
    24     8     9   ar
    25     9    10   ar
    26    10    11    1
    27    18    12   ar
    28    11     3    1
    29    10     6   ar
    30    27    21   ar
@<TRIPOS>MOLECULE
*****
 27 30 0 0 0
SMALL
GASTEIGER

@<TRIPOS>ATOM
      1 O         144.9565  137.4631  155.4388 O.2     1  UNL1       -0.2699
      2 C         143.6791  137.0136  156.0838 C.2     1  UNL1        0.2494
      3 N         142.8698  137.9791  156.8981 N.am    1  UNL1       -0.2686
      4 C         143.3381  139.3940  157.0674 C.3     1  UNL1        0.1005
      5 C         142.5289  140.3594  157.8817 C.3     1  UNL1        0.0703
      6 C         141.2514  139.9099  158.5267 C.ar    1  UNL1        0.0955
      7 N         140.2503  140.6305  159.3804 N.ar    1  UNL1       -0.2136
      8 C         139.1634  139.6609  159.7387 C.ar    1  UNL1        0.2500
      9 O         139.4927  138.3411  159.1065 O.2     1  UNL1       -0.4379
     10 C         140.7832  138.4950  158.3575 C.ar    1  UNL1        0.1580
     11 C         141.5924  137.5296  157.5432 C.3     1  UNL1        0.1598
     12 C         143.2108  135.5987  155.9146 C.ar    1  UNL1        0.0537
     13 C         142.4610  135.1996  154.6782 C.ar    1  UNL1        0.0068
     14 C         141.9927  133.7846  154.5090 C.ar    1  UNL1        0.0298
     15 C         142.2744  132.7688  155.5761 C.ar    1  UNL1        0.1401
     16 F         141.8061  131.3538  155.4068 F       1  UNL1       -0.2042
     17 C         143.0242  133.1678  156.8124 C.ar    1  UNL1        0.0298
     18 C         143.4924  134.5827  156.9816 C.ar    1  UNL1        0.0068
     19 C         137.9586  139.9588  160.5812 C.3     1  UNL1        0.2895
     20 O         137.5556  139.0138  161.6742 O.3     1  UNL1       -0.4654
     21 C         138.3745  138.9240  162.9278 C.ar    1  UNL1        0.1415
     22 C         138.2254  139.9651  163.9973 C.ar    1  UNL1        0.0371
     23 C         139.0442  139.8753  165.2508 C.ar    1  UNL1        0.0054
     24 C         140.0123  138.7443  165.4348 C.ar    1  UNL1        0.0298
     25 C         140.1614  137.7032  164.3653 C.ar    1  UNL1        0.1432
     26 F         141.1294  136.5722  164.5493 F       1  UNL1       -0.2041
     27 C         139.3425  137.7930  163.1118 C.ar    1  UNL1        0.0665
@<TRIPOS>BOND
     1     1     2    2
     2     2    12    1
     3    12    13   ar
     4    13    14   ar
     5    14    15   ar
     6    15    16    1
     7    15    17   ar
     8    17    18   ar
     9     2     3   am
    10     3     4    1
    11     4     5    1
    12     5     6    1
    13     6     7   ar
    14     7     8   ar
    15     8    19    1
    16    19    20    1
    17    20    21    1
    18    21    22   ar
    19    22    23   ar
    20    23    24   ar
    21    24    25   ar
    22    25    26    1
    23    25    27   ar
    24     8     9   ar
    25     9    10   ar
    26    10    11    1
    27    18    12   ar
    28    11     3    1
    29    10     6   ar
    30    27    21   ar
