@<TRIPOS>MOLECULE
*****
 28 31 0 0 0
SMALL
GASTEIGER

@<TRIPOS>ATOM
      1 C         140.3223  141.6409  169.7479 C.ar    1  UNL1        0.0784
      2 C         139.0570  140.9488  170.1600 C.ar    1  UNL1        0.1070
      3 N         138.4519  139.9014  169.2731 N.ar    1  UNL1       -0.2100
      4 C         139.1122  139.5460  167.9739 C.ar    1  UNL1        0.2252
      5 C         140.3775  140.2381  167.5618 C.ar    1  UNL1        0.0598
      6 C         141.2478  140.0992  166.3480 C.ar    1  UNL1        0.0116
      7 C         142.3908  141.0609  166.4849 C.ar    1  UNL1        0.0296
      8 S         142.2269  141.7941  167.7832 S.2     1  UNL1       -0.0866
      9 C         140.9826  141.2855  168.4488 C.ar    1  UNL1        0.0398
     10 C         143.5026  141.2553  165.4969 C.ar    1  UNL1        0.0060
     11 C         144.0689  140.0758  164.7633 C.ar    1  UNL1        0.0005
     12 C         145.1807  140.2703  163.7753 C.ar    1  UNL1        0.0000
     13 C         145.7262  141.6442  163.5208 C.ar    1  UNL1        0.0000
     14 C         145.1600  142.8237  164.2544 C.ar    1  UNL1        0.0000
     15 C         144.0482  142.6292  165.2424 C.ar    1  UNL1        0.0005
     16 N         140.7906  144.1399  170.2824 N.am    1  UNL1       -0.3253
     17 C         140.9274  142.6884  170.6349 C.2     1  UNL1        0.2448
     18 O         141.6694  142.2842  171.8744 O.2     1  UNL1       -0.2703
     19 H         141.1877  144.8274  170.8646 H       1  UNL1        0.1453
     20 H         140.3036  144.4051  169.4689 H       1  UNL1        0.1453
     21 O         138.5070  138.4985  167.0870 O.3     1  UNL1       -0.4625
     22 C         138.4723  138.7025  165.6014 C.3     1  UNL1        0.1832
     23 C         138.9448  137.6140  164.6837 C.3     1  UNL1        0.0465
     24 C         138.9101  137.8179  163.1981 C.3     1  UNL1        0.0208
     25 C         138.4029  139.1102  162.6301 C.3     1  UNL1        0.0688
     26 N         137.9304  140.1986  163.5477 N.3     1  UNL1       -0.2945
     27 C         137.9650  139.9948  165.0334 C.3     1  UNL1        0.1127
     28 H         136.9601  140.3924  163.2997 H       1  UNL1        0.1234
@<TRIPOS>BOND
     1    16    17   am
     2    17    18    2
     3    17     1    1
     4     1     2   ar
     5     2     3   ar
     6     3     4   ar
     7     4    21    1
     8    22    21    1
     9    22    23    1
    10    23    24    1
    11    24    25    1
    12    25    26    1
    13    26    27    1
    14     4     5   ar
    15     5     6   ar
    16     6     7   ar
    17     7    10    1
    18    10    11   ar
    19    11    12   ar
    20    12    13   ar
    21    13    14   ar
    22    14    15   ar
    23     7     8   ar
    24     8     9   ar
    25     9     1   ar
    26    27    22    1
    27     9     5   ar
    28    15    10   ar
    29    16    19    1
    30    16    20    1
    31    26    28    1
@<TRIPOS>MOLECULE
*****
 28 31 0 0 0
SMALL
GASTEIGER

@<TRIPOS>ATOM
      1 C         139.2366  138.2355  164.6412 C.ar    1  UNL1        0.0784
      2 C         138.3913  137.4945  165.6343 C.ar    1  UNL1        0.1070
      3 N         138.1788  138.0593  167.0075 N.ar    1  UNL1       -0.2100
      4 C         138.8115  139.3652  167.3877 C.ar    1  UNL1        0.2252
      5 C         139.6568  140.1061  166.3945 C.ar    1  UNL1        0.0598
      6 C         140.4027  141.4046  166.4822 C.ar    1  UNL1        0.0116
      7 C         141.0762  141.6422  165.1632 C.ar    1  UNL1        0.0296
      8 S         140.7466  140.4907  164.2602 S.2     1  UNL1       -0.0866
      9 C         139.8694  139.5413  165.0212 C.ar    1  UNL1        0.0398
     10 C         141.9296  142.8239  164.8092 C.ar    1  UNL1        0.0060
     11 C         143.3866  142.8305  165.1655 C.ar    1  UNL1        0.0005
     12 C         144.2400  144.0123  164.8115 C.ar    1  UNL1        0.0000
     13 C         143.6363  145.1875  164.1012 C.ar    1  UNL1        0.0000
     14 C         142.1792  145.1809  163.7449 C.ar    1  UNL1        0.0000
     15 C         141.3259  143.9991  164.0989 C.ar    1  UNL1        0.0005
     16 N         138.3366  137.7048  162.2624 N.am    1  UNL1       -0.3253
     17 C         139.4492  137.6707  163.2679 C.2     1  UNL1        0.2448
     18 O         140.7744  137.0716  162.9002 O.2     1  UNL1       -0.2703
     19 H         138.4761  137.3341  161.3611 H       1  UNL1        0.1453
     20 H         137.4669  138.0980  162.5038 H       1  UNL1        0.1453
     21 O         138.5989  139.9299  168.7610 O.3     1  UNL1       -0.4625
     22 C         139.7567  140.5013  169.5244 C.3     1  UNL1        0.1832
     23 C         141.0180  139.7047  169.6812 C.3     1  UNL1        0.0465
     24 C         142.1759  140.2759  170.4447 C.3     1  UNL1        0.0208
     25 C         142.0725  141.6438  171.0514 C.3     1  UNL1        0.0688
     26 N         140.8112  142.4405  170.8946 N.3     1  UNL1       -0.2945
     27 C         139.6534  141.8692  170.1312 C.3     1  UNL1        0.1127
     28 H         141.0689  143.3115  170.4306 H       1  UNL1        0.1234
@<TRIPOS>BOND
     1    16    17   am
     2    17    18    2
     3    17     1    1
     4     1     2   ar
     5     2     3   ar
     6     3     4   ar
     7     4    21    1
     8    22    21    1
     9    22    23    1
    10    23    24    1
    11    24    25    1
    12    25    26    1
    13    26    27    1
    14     4     5   ar
    15     5     6   ar
    16     6     7   ar
    17     7    10    1
    18    10    11   ar
    19    11    12   ar
    20    12    13   ar
    21    13    14   ar
    22    14    15   ar
    23     7     8   ar
    24     8     9   ar
    25     9     1   ar
    26    27    22    1
    27     9     5   ar
    28    15    10   ar
    29    16    19    1
    30    16    20    1
    31    26    28    1
@<TRIPOS>MOLECULE
*****
 28 31 0 0 0
SMALL
GASTEIGER

@<TRIPOS>ATOM
      1 C         139.7133  141.0183  169.4321 C.ar    1  UNL1        0.0784
      2 C         138.7239  139.9062  169.6171 C.ar    1  UNL1        0.1070
      3 N         138.1728  139.1862  168.4222 N.ar    1  UNL1       -0.2100
      4 C         138.6110  139.5783  167.0422 C.ar    1  UNL1        0.2252
      5 C         139.6004  140.6904  166.8573 C.ar    1  UNL1        0.0598
      6 C         140.2140  141.2939  165.6287 C.ar    1  UNL1        0.0116
      7 C         141.1444  142.3869  166.0644 C.ar    1  UNL1        0.0296
      8 S         141.1058  142.4589  167.5622 S.2     1  UNL1       -0.0866
      9 C         140.1516  141.4104  168.0522 C.ar    1  UNL1        0.0398
     10 C         141.9687  143.2554  165.1609 C.ar    1  UNL1        0.0060
     11 C         141.3060  144.3094  164.3243 C.ar    1  UNL1        0.0005
     12 C         142.1303  145.1779  163.4209 C.ar    1  UNL1        0.0000
     13 C         143.6173  144.9923  163.3539 C.ar    1  UNL1        0.0000
     14 C         144.2800  143.9383  164.1905 C.ar    1  UNL1        0.0000
     15 C         143.4556  143.0698  165.0940 C.ar    1  UNL1        0.0005
     16 N         139.6525  143.0341  171.0700 N.am    1  UNL1       -0.3253
     17 C         140.2645  141.7383  170.6270 C.2     1  UNL1        0.2448
     18 O         141.4277  141.1623  171.3790 O.2     1  UNL1       -0.2703
     19 H         140.0143  143.5066  171.8543 H       1  UNL1        0.1453
     20 H         138.8891  143.4121  170.5765 H       1  UNL1        0.1453
     21 O         138.0598  138.8583  165.8473 O.3     1  UNL1       -0.4625
     22 C         138.9778  138.4265  164.7425 C.3     1  UNL1        0.1832
     23 C         140.1819  137.5874  165.0528 C.3     1  UNL1        0.0465
     24 C         141.1000  137.1556  163.9481 C.3     1  UNL1        0.0208
     25 C         140.8141  137.5627  162.5330 C.3     1  UNL1        0.0688
     26 N         139.6100  138.4017  162.2227 N.3     1  UNL1       -0.2945
     27 C         138.6919  138.8336  163.3274 C.3     1  UNL1        0.1127
     28 H         139.0443  137.8713  161.5601 H       1  UNL1        0.1234
@<TRIPOS>BOND
     1    16    17   am
     2    17    18    2
     3    17     1    1
     4     1     2   ar
     5     2     3   ar
     6     3     4   ar
     7     4    21    1
     8    22    21    1
     9    22    23    1
    10    23    24    1
    11    24    25    1
    12    25    26    1
    13    26    27    1
    14     4     5   ar
    15     5     6   ar
    16     6     7   ar
    17     7    10    1
    18    10    11   ar
    19    11    12   ar
    20    12    13   ar
    21    13    14   ar
    22    14    15   ar
    23     7     8   ar
    24     8     9   ar
    25     9     1   ar
    26    27    22    1
    27     9     5   ar
    28    15    10   ar
    29    16    19    1
    30    16    20    1
    31    26    28    1
@<TRIPOS>MOLECULE
*****
 28 31 0 0 0
SMALL
GASTEIGER

@<TRIPOS>ATOM
      1 C         141.3777  140.8145  169.5480 C.ar    1  UNL1        0.0784
      2 C         142.1528  139.5813  169.9061 C.ar    1  UNL1        0.1070
      3 N         142.9001  138.8304  168.8443 N.ar    1  UNL1       -0.2100
      4 C         142.8724  139.3127  167.4242 C.ar    1  UNL1        0.2252
      5 C         142.0974  140.5460  167.0660 C.ar    1  UNL1        0.0598
      6 C         141.8875  141.2560  165.7615 C.ar    1  UNL1        0.0116
      7 C         141.0104  142.4457  166.0171 C.ar    1  UNL1        0.0296
      8 S         140.6782  142.4710  167.4796 S.2     1  UNL1       -0.0866
      9 C         141.3500  141.2969  168.1279 C.ar    1  UNL1        0.0398
     10 C         140.5469  143.4362  164.9905 C.ar    1  UNL1        0.0060
     11 C         139.0798  143.6643  164.7771 C.ar    1  UNL1        0.0005
     12 C         138.6164  144.6549  163.7504 C.ar    1  UNL1        0.0000
     13 C         139.6200  145.4173  162.9371 C.ar    1  UNL1        0.0000
     14 C         141.0871  145.1892  163.1504 C.ar    1  UNL1        0.0000
     15 C         141.5505  144.1986  164.1771 C.ar    1  UNL1        0.0005
     16 N         139.1326  141.6342  170.5665 N.am    1  UNL1       -0.3253
     17 C         140.6304  141.5654  170.6099 C.2     1  UNL1        0.2448
     18 O         141.3809  142.2476  171.7152 O.2     1  UNL1       -0.2703
     19 H         138.6421  142.1270  171.2635 H       1  UNL1        0.1453
     20 H         138.6400  141.1865  169.8412 H       1  UNL1        0.1453
     21 O         143.6198  138.5618  166.3623 O.3     1  UNL1       -0.4625
     22 C         142.9804  138.3134  165.0284 C.3     1  UNL1        0.1832
     23 C         141.6932  137.5479  164.9447 C.3     1  UNL1        0.0465
     24 C         141.0537  137.2995  163.6108 C.3     1  UNL1        0.0208
     25 C         141.7014  137.8167  162.3606 C.3     1  UNL1        0.0688
     26 N         142.9886  138.5822  162.4443 N.3     1  UNL1       -0.2945
     27 C         143.6281  138.8306  163.7782 C.3     1  UNL1        0.1127
     28 H         142.8154  139.4963  162.0261 H       1  UNL1        0.1234
@<TRIPOS>BOND
     1    16    17   am
     2    17    18    2
     3    17     1    1
     4     1     2   ar
     5     2     3   ar
     6     3     4   ar
     7     4    21    1
     8    22    21    1
     9    22    23    1
    10    23    24    1
    11    24    25    1
    12    25    26    1
    13    26    27    1
    14     4     5   ar
    15     5     6   ar
    16     6     7   ar
    17     7    10    1
    18    10    11   ar
    19    11    12   ar
    20    12    13   ar
    21    13    14   ar
    22    14    15   ar
    23     7     8   ar
    24     8     9   ar
    25     9     1   ar
    26    27    22    1
    27     9     5   ar
    28    15    10   ar
    29    16    19    1
    30    16    20    1
    31    26    28    1
@<TRIPOS>MOLECULE
*****
 28 31 0 0 0
SMALL
GASTEIGER

@<TRIPOS>ATOM
      1 C         141.7535  140.9580  169.4567 C.ar    1  UNL1        0.0784
      2 C         142.5936  139.7523  169.7576 C.ar    1  UNL1        0.1070
      3 N         143.0777  138.8775  168.6395 N.ar    1  UNL1       -0.2100
      4 C         142.7216  139.2083  167.2203 C.ar    1  UNL1        0.2252
      5 C         141.8815  140.4140  166.9195 C.ar    1  UNL1        0.0598
      6 C         141.3743  140.9873  165.6295 C.ar    1  UNL1        0.0116
      7 C         140.5767  142.2164  165.9505 C.ar    1  UNL1        0.0296
      8 S         140.5910  142.4028  167.4388 S.2     1  UNL1       -0.0866
      9 C         141.3974  141.2888  168.0377 C.ar    1  UNL1        0.0398
     10 C         139.8861  143.1035  164.9574 C.ar    1  UNL1        0.0060
     11 C         140.6631  144.1572  164.2254 C.ar    1  UNL1        0.0005
     12 C         139.9724  145.0443  163.2324 C.ar    1  UNL1        0.0000
     13 C         138.5047  144.8777  162.9714 C.ar    1  UNL1        0.0000
     14 C         137.7276  143.8240  163.7034 C.ar    1  UNL1        0.0000
     15 C         138.4184  142.9369  164.6965 C.ar    1  UNL1        0.0005
     16 N         142.2554  142.5794  171.4238 N.am    1  UNL1       -0.3253
     17 C         141.2694  141.8328  170.5749 C.2     1  UNL1        0.2448
     18 O         139.7993  141.9612  170.8443 O.2     1  UNL1       -0.2703
     19 H         141.9377  143.1536  172.1577 H       1  UNL1        0.1453
     20 H         143.2202  142.4952  171.2470 H       1  UNL1        0.1453
     21 O         143.2057  138.3334  166.1022 O.3     1  UNL1       -0.4625
     22 C         143.6082  138.9440  164.7926 C.3     1  UNL1        0.1832
     23 C         144.7034  139.9679  164.7476 C.3     1  UNL1        0.0465
     24 C         145.1060  140.5786  163.4380 C.3     1  UNL1        0.0208
     25 C         144.4133  140.1652  162.1734 C.3     1  UNL1        0.0688
     26 N         143.3181  139.1412  162.2183 N.3     1  UNL1       -0.2945
     27 C         142.9156  138.5306  163.5279 C.3     1  UNL1        0.1127
     28 H         143.6076  138.3737  161.6122 H       1  UNL1        0.1234
@<TRIPOS>BOND
     1    16    17   am
     2    17    18    2
     3    17     1    1
     4     1     2   ar
     5     2     3   ar
     6     3     4   ar
     7     4    21    1
     8    22    21    1
     9    22    23    1
    10    23    24    1
    11    24    25    1
    12    25    26    1
    13    26    27    1
    14     4     5   ar
    15     5     6   ar
    16     6     7   ar
    17     7    10    1
    18    10    11   ar
    19    11    12   ar
    20    12    13   ar
    21    13    14   ar
    22    14    15   ar
    23     7     8   ar
    24     8     9   ar
    25     9     1   ar
    26    27    22    1
    27     9     5   ar
    28    15    10   ar
    29    16    19    1
    30    16    20    1
    31    26    28    1
@<TRIPOS>MOLECULE
*****
 28 31 0 0 0
SMALL
GASTEIGER

@<TRIPOS>ATOM
      1 C         138.9972  139.0855  164.2443 C.ar    1  UNL1        0.0784
      2 C         138.1908  139.3500  163.0075 C.ar    1  UNL1        0.1070
      3 N         137.8577  140.7592  162.6165 N.ar    1  UNL1       -0.2100
      4 C         138.3310  141.9041  163.4623 C.ar    1  UNL1        0.2252
      5 C         139.1375  141.6396  164.6991 C.ar    1  UNL1        0.0598
      6 C         139.7372  142.5586  165.7217 C.ar    1  UNL1        0.0116
      7 C         140.4410  141.7172  166.7448 C.ar    1  UNL1        0.0296
      8 S         140.2762  140.2782  166.3545 S.2     1  UNL1       -0.0866
      9 C         139.4706  140.2303  165.0901 C.ar    1  UNL1        0.0398
     10 C         141.1799  142.2254  167.9472 C.ar    1  UNL1        0.0060
     11 C         140.4839  143.1142  168.9349 C.ar    1  UNL1        0.0005
     12 C         141.2228  143.6224  170.1373 C.ar    1  UNL1        0.0000
     13 C         142.6578  143.2419  170.3520 C.ar    1  UNL1        0.0000
     14 C         143.3538  142.3531  169.3643 C.ar    1  UNL1        0.0000
     15 C         142.6148  141.8449  168.1619 C.ar    1  UNL1        0.0005
     16 N         140.5429  137.0053  164.0614 N.am    1  UNL1       -0.3253
     17 C         139.3303  137.6762  164.6354 C.2     1  UNL1        0.2448
     18 O         138.4507  136.9378  165.6004 O.2     1  UNL1       -0.2703
     19 H         140.7616  136.0803  164.3181 H       1  UNL1        0.1453
     20 H         141.1202  137.4899  163.4281 H       1  UNL1        0.1453
     21 O         137.9979  143.3135  163.0712 O.3     1  UNL1       -0.4625
     22 C         138.9052  144.0696  162.1466 C.3     1  UNL1        0.1832
     23 C         139.3060  143.4689  160.8319 C.3     1  UNL1        0.0465
     24 C         140.2134  144.2250  159.9073 C.3     1  UNL1        0.0208
     25 C         140.7200  145.5819  160.2974 C.3     1  UNL1        0.0688
     26 N         140.3192  146.1826  161.6121 N.3     1  UNL1       -0.2945
     27 C         139.4119  145.4265  162.5367 C.3     1  UNL1        0.1127
     28 H         139.8559  147.0668  161.4028 H       1  UNL1        0.1234
@<TRIPOS>BOND
     1    16    17   am
     2    17    18    2
     3    17     1    1
     4     1     2   ar
     5     2     3   ar
     6     3     4   ar
     7     4    21    1
     8    22    21    1
     9    22    23    1
    10    23    24    1
    11    24    25    1
    12    25    26    1
    13    26    27    1
    14     4     5   ar
    15     5     6   ar
    16     6     7   ar
    17     7    10    1
    18    10    11   ar
    19    11    12   ar
    20    12    13   ar
    21    13    14   ar
    22    14    15   ar
    23     7     8   ar
    24     8     9   ar
    25     9     1   ar
    26    27    22    1
    27     9     5   ar
    28    15    10   ar
    29    16    19    1
    30    16    20    1
    31    26    28    1
@<TRIPOS>MOLECULE
*****
 28 31 0 0 0
SMALL
GASTEIGER

@<TRIPOS>ATOM
      1 C         139.6864  143.8416  161.5753 C.ar    1  UNL1        0.0784
      2 C         138.9416  143.1065  160.5006 C.ar    1  UNL1        0.1070
      3 N         138.4373  141.7168  160.7538 N.ar    1  UNL1       -0.2100
      4 C         138.6778  141.0619  162.0818 C.ar    1  UNL1        0.2252
      5 C         139.4226  141.7970  163.1565 C.ar    1  UNL1        0.0598
      6 C         139.8078  141.4115  164.5540 C.ar    1  UNL1        0.0116
      7 C         140.5501  142.5631  165.1645 C.ar    1  UNL1        0.0296
      8 S         140.6237  143.6603  164.1443 S.2     1  UNL1       -0.0866
      9 C         139.9269  143.1868  162.9032 C.ar    1  UNL1        0.0398
     10 C         141.1190  142.6095  166.5516 C.ar    1  UNL1        0.0060
     11 C         142.5594  142.2610  166.7836 C.ar    1  UNL1        0.0005
     12 C         143.1282  142.3074  168.1708 C.ar    1  UNL1        0.0000
     13 C         142.2566  142.7022  169.3260 C.ar    1  UNL1        0.0000
     14 C         140.8162  143.0506  169.0941 C.ar    1  UNL1        0.0000
     15 C         140.2474  143.0043  167.7068 C.ar    1  UNL1        0.0005
     16 N         141.6299  145.4531  160.9623 N.am    1  UNL1       -0.3253
     17 C         140.1907  145.2314  161.3221 C.2     1  UNL1        0.2448
     18 O         139.2556  146.3995  161.4286 O.2     1  UNL1       -0.2703
     19 H         141.9608  146.3653  160.7961 H       1  UNL1        0.1453
     20 H         142.2435  144.6864  160.8923 H       1  UNL1        0.1453
     21 O         138.1735  139.6721  162.3349 O.3     1  UNL1       -0.4625
     22 C         139.0814  138.6436  162.9415 C.3     1  UNL1        0.1832
     23 C         138.8627  138.1901  164.3544 C.3     1  UNL1        0.0465
     24 C         139.7706  137.1617  164.9611 C.3     1  UNL1        0.0208
     25 C         140.8972  136.5868  164.1547 C.3     1  UNL1        0.0688
     26 N         141.1160  137.0403  162.7418 N.3     1  UNL1       -0.2945
     27 C         140.2081  138.0688  162.1351 C.3     1  UNL1        0.1127
     28 H         141.0548  136.2096  162.1531 H       1  UNL1        0.1234
@<TRIPOS>BOND
     1    16    17   am
     2    17    18    2
     3    17     1    1
     4     1     2   ar
     5     2     3   ar
     6     3     4   ar
     7     4    21    1
     8    22    21    1
     9    22    23    1
    10    23    24    1
    11    24    25    1
    12    25    26    1
    13    26    27    1
    14     4     5   ar
    15     5     6   ar
    16     6     7   ar
    17     7    10    1
    18    10    11   ar
    19    11    12   ar
    20    12    13   ar
    21    13    14   ar
    22    14    15   ar
    23     7     8   ar
    24     8     9   ar
    25     9     1   ar
    26    27    22    1
    27     9     5   ar
    28    15    10   ar
    29    16    19    1
    30    16    20    1
    31    26    28    1
@<TRIPOS>MOLECULE
*****
 28 31 0 0 0
SMALL
GASTEIGER

@<TRIPOS>ATOM
      1 C         140.4710  140.6309  169.0852 C.ar    1  UNL1        0.0784
      2 C         139.9934  140.4043  170.4889 C.ar    1  UNL1        0.1070
      3 N         138.7083  139.6708  170.7347 N.ar    1  UNL1       -0.2100
      4 C         137.9008  139.1638  169.5766 C.ar    1  UNL1        0.2252
      5 C         138.3785  139.3904  168.1729 C.ar    1  UNL1        0.0598
      6 C         137.8002  139.0097  166.8422 C.ar    1  UNL1        0.0116
      7 C         138.7280  139.5080  165.7741 C.ar    1  UNL1        0.0296
      8 S         139.8796  140.1967  166.4446 S.2     1  UNL1       -0.0866
      9 C         139.6636  140.1239  167.9272 C.ar    1  UNL1        0.0398
     10 C         138.5376  139.3462  164.2951 C.ar    1  UNL1        0.0060
     11 C         138.9202  138.0593  163.6260 C.ar    1  UNL1        0.0005
     12 C         138.7297  137.8976  162.1469 C.ar    1  UNL1        0.0000
     13 C         138.1567  139.0225  161.3369 C.ar    1  UNL1        0.0000
     14 C         137.7742  140.3094  162.0060 C.ar    1  UNL1        0.0000
     15 C         137.9646  140.4712  163.4851 C.ar    1  UNL1        0.0005
     16 N         141.7336  142.8286  168.5145 N.am    1  UNL1       -0.3253
     17 C         141.7561  141.3645  168.8395 C.2     1  UNL1        0.2448
     18 O         143.0638  140.6338  168.9188 O.2     1  UNL1       -0.2703
     19 H         142.5771  143.3101  168.3532 H       1  UNL1        0.1453
     20 H         140.8754  143.3082  168.4624 H       1  UNL1        0.1453
     21 O         136.6157  138.4302  169.8225 O.3     1  UNL1       -0.4625
     22 C         136.2388  138.0239  171.2163 C.3     1  UNL1        0.1832
     23 C         136.8096  136.7714  171.8126 C.3     1  UNL1        0.0465
     24 C         136.4328  136.3650  173.2064 C.3     1  UNL1        0.0208
     25 C         135.4852  137.2111  174.0040 C.3     1  UNL1        0.0688
     26 N         134.9144  138.4635  173.4077 N.3     1  UNL1       -0.2945
     27 C         135.2912  138.8699  172.0139 C.3     1  UNL1        0.1127
     28 H         135.1849  139.2318  174.0217 H       1  UNL1        0.1234
@<TRIPOS>BOND
     1    16    17   am
     2    17    18    2
     3    17     1    1
     4     1     2   ar
     5     2     3   ar
     6     3     4   ar
     7     4    21    1
     8    22    21    1
     9    22    23    1
    10    23    24    1
    11    24    25    1
    12    25    26    1
    13    26    27    1
    14     4     5   ar
    15     5     6   ar
    16     6     7   ar
    17     7    10    1
    18    10    11   ar
    19    11    12   ar
    20    12    13   ar
    21    13    14   ar
    22    14    15   ar
    23     7     8   ar
    24     8     9   ar
    25     9     1   ar
    26    27    22    1
    27     9     5   ar
    28    15    10   ar
    29    16    19    1
    30    16    20    1
    31    26    28    1
@<TRIPOS>MOLECULE
*****
 28 31 0 0 0
SMALL
GASTEIGER

@<TRIPOS>ATOM
      1 C         140.8195  138.9781  163.0330 C.ar    1  UNL1        0.0784
      2 C         141.3676  139.3474  161.6865 C.ar    1  UNL1        0.1070
      3 N         141.9308  140.7184  161.4563 N.ar    1  UNL1       -0.2100
      4 C         141.9460  141.7202  162.5727 C.ar    1  UNL1        0.2252
      5 C         141.3978  141.3509  163.9192 C.ar    1  UNL1        0.0598
      6 C         141.2792  142.1218  165.2005 C.ar    1  UNL1        0.0116
      7 C         140.6427  141.2272  166.2224 C.ar    1  UNL1        0.0296
      8 S         140.3679  139.9034  165.5729 S.2     1  UNL1       -0.0866
      9 C         140.8346  139.9798  164.1494 C.ar    1  UNL1        0.0398
     10 C         140.3349  141.5923  167.6444 C.ar    1  UNL1        0.0060
     11 C         139.6931  140.5875  168.5547 C.ar    1  UNL1        0.0005
     12 C         139.3854  140.9527  169.9766 C.ar    1  UNL1        0.0000
     13 C         139.7194  142.3226  170.4884 C.ar    1  UNL1        0.0000
     14 C         140.3612  143.3274  169.5781 C.ar    1  UNL1        0.0000
     15 C         140.6689  142.9622  168.1562 C.ar    1  UNL1        0.0005
     16 N         138.8488  137.2951  162.8486 N.am    1  UNL1       -0.3253
     17 C         140.2563  137.6070  163.2631 C.2     1  UNL1        0.2448
     18 O         141.1005  136.5478  163.9078 O.2     1  UNL1       -0.2703
     19 H         138.4792  136.3952  162.9997 H       1  UNL1        0.1453
     20 H         138.2948  137.9902  162.4255 H       1  UNL1        0.1453
     21 O         142.5092  143.0913  162.3425 O.3     1  UNL1       -0.4625
     22 C         141.5973  144.2254  161.9791 C.3     1  UNL1        0.1832
     23 C         141.0506  144.3314  160.5863 C.3     1  UNL1        0.0465
     24 C         140.1387  145.4655  160.2228 C.3     1  UNL1        0.0208
     25 C         139.7735  146.4937  161.2521 C.3     1  UNL1        0.0688
     26 N         140.3202  146.3877  162.6450 N.3     1  UNL1       -0.2945
     27 C         141.2321  145.2536  163.0084 C.3     1  UNL1        0.1127
     28 H         139.5181  146.3334  163.2728 H       1  UNL1        0.1234
@<TRIPOS>BOND
     1    16    17   am
     2    17    18    2
     3    17     1    1
     4     1     2   ar
     5     2     3   ar
     6     3     4   ar
     7     4    21    1
     8    22    21    1
     9    22    23    1
    10    23    24    1
    11    24    25    1
    12    25    26    1
    13    26    27    1
    14     4     5   ar
    15     5     6   ar
    16     6     7   ar
    17     7    10    1
    18    10    11   ar
    19    11    12   ar
    20    12    13   ar
    21    13    14   ar
    22    14    15   ar
    23     7     8   ar
    24     8     9   ar
    25     9     1   ar
    26    27    22    1
    27     9     5   ar
    28    15    10   ar
    29    16    19    1
    30    16    20    1
    31    26    28    1
