@<TRIPOS>MOLECULE
*****
 33 37 0 0 0
SMALL
GASTEIGER

@<TRIPOS>ATOM
      1 C         140.2796  141.8975  164.7054 C.ar    1  UNL1        0.1499
      2 N         140.5464  142.7177  165.9326 N.ar    1  UNL1       -0.2277
      3 C         140.2752  142.1439  167.2917 C.ar    1  UNL1        0.0875
      4 C         140.5419  142.9641  168.5190 C.ar    1  UNL1        0.0193
      5 C         140.2707  142.3902  169.8780 C.ar    1  UNL1        0.0015
      6 C         139.7328  140.9962  170.0099 C.ar    1  UNL1        0.0003
      7 C         139.4661  140.1760  168.7827 C.ar    1  UNL1        0.0063
      8 C         139.7373  140.7499  167.4236 C.ar    1  UNL1        0.0742
      9 C         139.4706  139.9297  166.1963 C.ar    1  UNL1        0.2672
     10 O         138.9326  138.5356  166.3282 O.2     1  UNL1       -0.2665
     11 N         139.7417  140.5035  164.8372 N.ar    1  UNL1       -0.2592
     12 C         139.4750  139.6833  163.6099 C.ar    1  UNL1        0.0682
     13 C         140.5618  138.8284  163.0284 C.ar    1  UNL1        0.0177
     14 C         140.2951  138.0083  161.8011 C.ar    1  UNL1        0.0015
     15 C         138.9417  138.0429  161.1554 C.ar    1  UNL1        0.0001
     16 C         137.8549  138.8978  161.7370 C.ar    1  UNL1        0.0015
     17 C         138.1216  139.7180  162.9642 C.ar    1  UNL1        0.0177
     18 C         139.4406  143.1127  162.5677 C.2     1  UNL1        0.0032
     19 C         140.5508  142.4713  163.3462 C.2     1  UNL1        0.0375
     20 C         139.5013  143.5435  158.6230 C.ar    1  UNL1        0.1547
     21 C         139.2301  142.9697  159.9821 C.ar    1  UNL1        0.0384
     22 C         139.7118  143.6865  161.2086 C.ar    1  UNL1        0.0032
     23 C         140.4648  144.9770  161.0759 C.ar    1  UNL1        0.0017
     24 C         140.7360  145.5507  159.7167 C.ar    1  UNL1        0.0206
     25 C         140.2543  144.8340  158.4903 C.ar    1  UNL1        0.0994
     26 N         140.5255  145.4078  157.1312 N.ar    1  UNL1       -0.2839
     27 C         141.5482  144.9113  156.1526 C.ar    1  UNL1        0.1826
     28 N         141.4764  145.7755  154.9286 N.ar    1  UNL1       -0.2280
     29 C         140.4092  146.8061  155.1508 C.ar    1  UNL1        0.0786
     30 C         140.0015  147.8759  154.1819 C.3     1  UNL1        0.0538
     31 C         139.8216  146.5788  156.5120 C.ar    1  UNL1        0.0963
     32 C         137.5579  142.5386  157.2218 C.3     1  UNL1        0.2525
     33 O         139.0196  142.8267  157.3966 O.3     1  UNL1       -0.4700
@<TRIPOS>BOND
     1    32    33    1
     2    33    20    1
     3    20    21   ar
     4    21    22   ar
     5    22    18    1
     6    18    19    2
     7    19     1    1
     8     1     2   ar
     9     2     3   ar
    10     3     4   ar
    11     4     5   ar
    12     5     6   ar
    13     6     7   ar
    14     7     8   ar
    15     8     9   ar
    16     9    10    2
    17     9    11   ar
    18    11    12    1
    19    12    13   ar
    20    13    14   ar
    21    14    15   ar
    22    15    16   ar
    23    16    17   ar
    24    22    23   ar
    25    23    24   ar
    26    24    25   ar
    27    25    26    1
    28    26    27   ar
    29    27    28   ar
    30    28    29   ar
    31    29    30    1
    32    29    31   ar
    33    25    20   ar
    34    31    26   ar
    35    11     1   ar
    36    17    12   ar
    37     8     3   ar
@<TRIPOS>MOLECULE
*****
 33 37 0 0 0
SMALL
GASTEIGER

@<TRIPOS>ATOM
      1 C         141.5282  140.3206  163.4072 C.ar    1  UNL1        0.1499
      2 N         140.7469  139.0430  163.4924 N.ar    1  UNL1       -0.2277
      3 C         139.8129  138.8103  164.6429 C.ar    1  UNL1        0.0875
      4 C         139.0316  137.5327  164.7280 C.ar    1  UNL1        0.0193
      5 C         138.0977  137.3000  165.8785 C.ar    1  UNL1        0.0015
      6 C         137.9451  138.3449  166.9438 C.ar    1  UNL1        0.0003
      7 C         138.7264  139.6225  166.8586 C.ar    1  UNL1        0.0063
      8 C         139.6603  139.8552  165.7082 C.ar    1  UNL1        0.0742
      9 C         140.4417  141.1328  165.6230 C.ar    1  UNL1        0.2672
     10 O         140.2891  142.1777  166.6883 O.2     1  UNL1       -0.2665
     11 N         141.3756  141.3655  164.4725 N.ar    1  UNL1       -0.2592
     12 C         142.1570  142.6431  164.3873 C.ar    1  UNL1        0.0682
     13 C         143.5262  142.7267  164.9941 C.ar    1  UNL1        0.0177
     14 C         144.3076  144.0043  164.9089 C.ar    1  UNL1        0.0015
     15 C         143.7197  145.1982  164.2169 C.ar    1  UNL1        0.0001
     16 C         142.3504  145.1146  163.6101 C.ar    1  UNL1        0.0015
     17 C         141.5691  143.8370  163.6953 C.ar    1  UNL1        0.0177
     18 C         141.9427  141.1326  160.9743 C.2     1  UNL1        0.0032
     19 C         142.4622  140.5533  162.2567 C.2     1  UNL1        0.0375
     20 C         144.1653  140.4666  157.7546 C.ar    1  UNL1        0.1547
     21 C         143.2313  140.2339  158.9050 C.ar    1  UNL1        0.0384
     22 C         142.8767  141.3653  159.8239 C.ar    1  UNL1        0.0032
     23 C         143.4561  142.7293  159.5923 C.ar    1  UNL1        0.0017
     24 C         144.3901  142.9620  158.4418 C.ar    1  UNL1        0.0206
     25 C         144.7447  141.8306  157.5230 C.ar    1  UNL1        0.0994
     26 N         145.6787  142.0633  156.3726 N.ar    1  UNL1       -0.2839
     27 C         147.1575  142.2945  156.4704 C.ar    1  UNL1        0.1826
     28 N         147.6907  142.4797  155.0805 N.ar    1  UNL1       -0.2280
     29 C         146.5412  142.3631  154.1238 C.ar    1  UNL1        0.0786
     30 C         146.6212  142.4827  152.6308 C.3     1  UNL1        0.0538
     31 C         145.2978  142.1057  154.9223 C.ar    1  UNL1        0.0963
     32 C         143.5435  138.8840  155.7902 C.3     1  UNL1        0.2525
     33 O         144.5198  139.3352  156.8358 O.3     1  UNL1       -0.4700
@<TRIPOS>BOND
     1    32    33    1
     2    33    20    1
     3    20    21   ar
     4    21    22   ar
     5    22    18    1
     6    18    19    2
     7    19     1    1
     8     1     2   ar
     9     2     3   ar
    10     3     4   ar
    11     4     5   ar
    12     5     6   ar
    13     6     7   ar
    14     7     8   ar
    15     8     9   ar
    16     9    10    2
    17     9    11   ar
    18    11    12    1
    19    12    13   ar
    20    13    14   ar
    21    14    15   ar
    22    15    16   ar
    23    16    17   ar
    24    22    23   ar
    25    23    24   ar
    26    24    25   ar
    27    25    26    1
    28    26    27   ar
    29    27    28   ar
    30    28    29   ar
    31    29    30    1
    32    29    31   ar
    33    25    20   ar
    34    31    26   ar
    35    11     1   ar
    36    17    12   ar
    37     8     3   ar
@<TRIPOS>MOLECULE
*****
 33 37 0 0 0
SMALL
GASTEIGER

@<TRIPOS>ATOM
      1 C         141.2630  141.8573  165.8652 C.ar    1  UNL1        0.1499
      2 N         140.6695  142.5707  167.0436 N.ar    1  UNL1       -0.2277
      3 C         140.9160  142.0593  168.4321 C.ar    1  UNL1        0.0875
      4 C         140.3224  142.7726  169.6105 C.ar    1  UNL1        0.0193
      5 C         140.5690  142.2612  170.9989 C.ar    1  UNL1        0.0015
      6 C         141.4092  141.0365  171.2088 C.ar    1  UNL1        0.0003
      7 C         142.0027  140.3231  170.0304 C.ar    1  UNL1        0.0063
      8 C         141.7562  140.8345  168.6420 C.ar    1  UNL1        0.0742
      9 C         142.3498  140.1211  167.4635 C.ar    1  UNL1        0.2672
     10 O         143.1899  138.8963  167.6735 O.2     1  UNL1       -0.2665
     11 N         142.1032  140.6325  166.0752 N.ar    1  UNL1       -0.2592
     12 C         142.6968  139.9191  164.8966 C.ar    1  UNL1        0.0682
     13 C         141.9158  138.8455  164.1986 C.ar    1  UNL1        0.0177
     14 C         142.5093  138.1321  163.0201 C.ar    1  UNL1        0.0015
     15 C         143.8838  138.4924  162.5397 C.ar    1  UNL1        0.0001
     16 C         144.6648  139.5661  163.2378 C.ar    1  UNL1        0.0015
     17 C         144.0713  140.2794  164.4162 C.ar    1  UNL1        0.0177
     18 C         142.0184  143.2723  163.8214 C.2     1  UNL1        0.0032
     19 C         141.0165  142.3687  164.4767 C.2     1  UNL1        0.0375
     20 C         142.0959  143.5659  159.8644 C.ar    1  UNL1        0.1547
     21 C         142.3425  143.0545  161.2528 C.ar    1  UNL1        0.0384
     22 C         141.7718  143.7836  162.4330 C.ar    1  UNL1        0.0032
     23 C         140.9546  145.0241  162.2247 C.ar    1  UNL1        0.0017
     24 C         140.7080  145.5354  160.8362 C.ar    1  UNL1        0.0206
     25 C         141.2787  144.8063  159.6561 C.ar    1  UNL1        0.0994
     26 N         141.0321  145.3176  158.2677 N.ar    1  UNL1       -0.2839
     27 C         142.0663  145.8821  157.3394 C.ar    1  UNL1        0.1826
     28 N         141.3813  146.2677  156.0617 N.ar    1  UNL1       -0.2280
     29 C         139.9238  145.9414  156.2005 C.ar    1  UNL1        0.0786
     30 C         138.8676  146.1633  155.1588 C.3     1  UNL1        0.0538
     31 C         139.7079  145.3543  157.5638 C.ar    1  UNL1        0.0963
     32 C         144.1526  142.7688  158.4916 C.3     1  UNL1        0.2525
     33 O         142.6666  142.8368  158.6843 O.3     1  UNL1       -0.4700
@<TRIPOS>BOND
     1    32    33    1
     2    33    20    1
     3    20    21   ar
     4    21    22   ar
     5    22    18    1
     6    18    19    2
     7    19     1    1
     8     1     2   ar
     9     2     3   ar
    10     3     4   ar
    11     4     5   ar
    12     5     6   ar
    13     6     7   ar
    14     7     8   ar
    15     8     9   ar
    16     9    10    2
    17     9    11   ar
    18    11    12    1
    19    12    13   ar
    20    13    14   ar
    21    14    15   ar
    22    15    16   ar
    23    16    17   ar
    24    22    23   ar
    25    23    24   ar
    26    24    25   ar
    27    25    26    1
    28    26    27   ar
    29    27    28   ar
    30    28    29   ar
    31    29    30    1
    32    29    31   ar
    33    25    20   ar
    34    31    26   ar
    35    11     1   ar
    36    17    12   ar
    37     8     3   ar
@<TRIPOS>MOLECULE
*****
 33 37 0 0 0
SMALL
GASTEIGER

@<TRIPOS>ATOM
      1 C         141.8273  140.4393  165.7574 C.ar    1  UNL1        0.1499
      2 N         142.6059  140.9330  166.9406 N.ar    1  UNL1       -0.2277
      3 C         142.0090  140.8596  168.3148 C.ar    1  UNL1        0.0875
      4 C         142.7875  141.3534  169.4980 C.ar    1  UNL1        0.0193
      5 C         142.1906  141.2799  170.8722 C.ar    1  UNL1        0.0015
      6 C         140.8152  140.7126  171.0631 C.ar    1  UNL1        0.0003
      7 C         140.0367  140.2188  169.8799 C.ar    1  UNL1        0.0063
      8 C         140.6336  140.2923  168.5057 C.ar    1  UNL1        0.0742
      9 C         139.8550  139.7985  167.3224 C.ar    1  UNL1        0.2672
     10 O         138.4796  139.2312  167.5134 O.2     1  UNL1       -0.2665
     11 N         140.4519  139.8720  165.9483 N.ar    1  UNL1       -0.2592
     12 C         139.6734  139.3782  164.7650 C.ar    1  UNL1        0.0682
     13 C         139.8470  137.9663  164.2892 C.ar    1  UNL1        0.0177
     14 C         139.0686  137.4725  163.1060 C.ar    1  UNL1        0.0015
     15 C         138.1165  138.3905  162.3985 C.ar    1  UNL1        0.0001
     16 C         137.9428  139.8025  162.8743 C.ar    1  UNL1        0.0015
     17 C         138.7213  140.2963  164.0575 C.ar    1  UNL1        0.0177
     18 C         142.0557  141.6399  163.4647 C.2     1  UNL1        0.0032
     19 C         142.4242  140.5127  164.3832 C.2     1  UNL1        0.0375
     20 C         143.5932  140.5262  159.9796 C.ar    1  UNL1        0.1547
     21 C         142.9963  140.4527  161.3538 C.ar    1  UNL1        0.0384
     22 C         142.6526  141.7134  162.0906 C.ar    1  UNL1        0.0032
     23 C         142.9058  143.0474  161.4532 C.ar    1  UNL1        0.0017
     24 C         143.5027  143.1208  160.0789 C.ar    1  UNL1        0.0206
     25 C         143.8464  141.8602  159.3422 C.ar    1  UNL1        0.0994
     26 N         144.4433  141.9336  157.9681 N.ar    1  UNL1       -0.2839
     27 C         143.7478  141.5870  156.6850 C.ar    1  UNL1        0.1826
     28 N         144.7152  141.8057  155.5596 N.ar    1  UNL1       -0.2280
     29 C         146.0085  142.2875  156.1472 C.ar    1  UNL1        0.0786
     30 C         147.2516  142.6301  155.3809 C.3     1  UNL1        0.0538
     31 C         145.8405  142.3666  157.6356 C.ar    1  UNL1        0.0963
     32 C         142.8442  138.3844  158.7140 C.3     1  UNL1        0.2525
     33 O         143.9368  139.2656  159.2429 O.3     1  UNL1       -0.4700
@<TRIPOS>BOND
     1    32    33    1
     2    33    20    1
     3    20    21   ar
     4    21    22   ar
     5    22    18    1
     6    18    19    2
     7    19     1    1
     8     1     2   ar
     9     2     3   ar
    10     3     4   ar
    11     4     5   ar
    12     5     6   ar
    13     6     7   ar
    14     7     8   ar
    15     8     9   ar
    16     9    10    2
    17     9    11   ar
    18    11    12    1
    19    12    13   ar
    20    13    14   ar
    21    14    15   ar
    22    15    16   ar
    23    16    17   ar
    24    22    23   ar
    25    23    24   ar
    26    24    25   ar
    27    25    26    1
    28    26    27   ar
    29    27    28   ar
    30    28    29   ar
    31    29    30    1
    32    29    31   ar
    33    25    20   ar
    34    31    26   ar
    35    11     1   ar
    36    17    12   ar
    37     8     3   ar
@<TRIPOS>MOLECULE
*****
 33 37 0 0 0
SMALL
GASTEIGER

@<TRIPOS>ATOM
      1 C         141.2320  140.9216  165.7201 C.ar    1  UNL1        0.1499
      2 N         141.9252  140.0764  166.7472 N.ar    1  UNL1       -0.2277
      3 C         141.9168  140.4904  168.1890 C.ar    1  UNL1        0.0875
      4 C         142.6100  139.6452  169.2161 C.ar    1  UNL1        0.0193
      5 C         142.6016  140.0592  170.6577 C.ar    1  UNL1        0.0015
      6 C         141.8999  141.3185  171.0723 C.ar    1  UNL1        0.0003
      7 C         141.2067  142.1637  170.0452 C.ar    1  UNL1        0.0063
      8 C         141.2151  141.7497  168.6036 C.ar    1  UNL1        0.0742
      9 C         140.5219  142.5949  167.5764 C.ar    1  UNL1        0.2672
     10 O         139.8202  143.8542  167.9910 O.2     1  UNL1       -0.2665
     11 N         140.5303  142.1809  166.1347 N.ar    1  UNL1       -0.2592
     12 C         139.8370  143.0261  165.1076 C.ar    1  UNL1        0.0682
     13 C         140.5720  144.1522  164.4429 C.ar    1  UNL1        0.0177
     14 C         139.8788  144.9975  163.4158 C.ar    1  UNL1        0.0015
     15 C         138.4507  144.7166  163.0533 C.ar    1  UNL1        0.0001
     16 C         137.7157  143.5905  163.7179 C.ar    1  UNL1        0.0015
     17 C         138.4089  142.7453  164.7451 C.ar    1  UNL1        0.0177
     18 C         142.4746  139.9009  163.6795 C.2     1  UNL1        0.0032
     19 C         141.2404  140.5076  164.2784 C.2     1  UNL1        0.0375
     20 C         141.1978  138.8069  160.0846 C.ar    1  UNL1        0.1547
     21 C         141.1894  139.2209  161.5263 C.ar    1  UNL1        0.0384
     22 C         142.4829  139.4869  162.2378 C.ar    1  UNL1        0.0032
     23 C         143.7848  139.3390  161.5075 C.ar    1  UNL1        0.0017
     24 C         143.7931  138.9249  160.0658 C.ar    1  UNL1        0.0206
     25 C         142.4996  138.6589  159.3544 C.ar    1  UNL1        0.0994
     26 N         142.5080  138.2450  157.9127 N.ar    1  UNL1       -0.2839
     27 C         142.2098  139.1306  156.7393 C.ar    1  UNL1        0.1826
     28 N         142.3335  138.3056  155.4926 N.ar    1  UNL1       -0.2280
     29 C         142.7082  136.9101  155.8955 C.ar    1  UNL1        0.0786
     30 C         142.9352  135.7550  154.9660 C.3     1  UNL1        0.0538
     31 C         142.8161  136.8726  157.3911 C.ar    1  UNL1        0.0963
     32 C         138.7308  139.4507  159.5854 C.3     1  UNL1        0.2525
     33 O         139.9043  138.5409  159.3732 O.3     1  UNL1       -0.4700
@<TRIPOS>BOND
     1    32    33    1
     2    33    20    1
     3    20    21   ar
     4    21    22   ar
     5    22    18    1
     6    18    19    2
     7    19     1    1
     8     1     2   ar
     9     2     3   ar
    10     3     4   ar
    11     4     5   ar
    12     5     6   ar
    13     6     7   ar
    14     7     8   ar
    15     8     9   ar
    16     9    10    2
    17     9    11   ar
    18    11    12    1
    19    12    13   ar
    20    13    14   ar
    21    14    15   ar
    22    15    16   ar
    23    16    17   ar
    24    22    23   ar
    25    23    24   ar
    26    24    25   ar
    27    25    26    1
    28    26    27   ar
    29    27    28   ar
    30    28    29   ar
    31    29    30    1
    32    29    31   ar
    33    25    20   ar
    34    31    26   ar
    35    11     1   ar
    36    17    12   ar
    37     8     3   ar
@<TRIPOS>MOLECULE
*****
 33 37 0 0 0
SMALL
GASTEIGER

@<TRIPOS>ATOM
      1 C         140.7080  141.0724  165.2722 C.ar    1  UNL1        0.1499
      2 N         139.8309  140.4904  166.3408 N.ar    1  UNL1       -0.2277
      3 C         140.1875  140.6739  167.7862 C.ar    1  UNL1        0.0875
      4 C         139.3105  140.0919  168.8549 C.ar    1  UNL1        0.0193
      5 C         139.6671  140.2755  170.3002 C.ar    1  UNL1        0.0015
      6 C         140.9007  141.0411  170.6769 C.ar    1  UNL1        0.0003
      7 C         141.7778  141.6231  169.6083 C.ar    1  UNL1        0.0063
      8 C         141.4212  141.4395  168.1630 C.ar    1  UNL1        0.0742
      9 C         142.2982  142.0216  167.0942 C.ar    1  UNL1        0.2672
     10 O         143.5319  142.7872  167.4710 O.2     1  UNL1       -0.2665
     11 N         141.9416  141.8380  165.6489 N.ar    1  UNL1       -0.2592
     12 C         142.8187  142.4200  164.5802 C.ar    1  UNL1        0.0682
     13 C         143.9883  141.6373  164.0611 C.ar    1  UNL1        0.0177
     14 C         144.8653  142.2192  162.9924 C.ar    1  UNL1        0.0015
     15 C         144.5728  143.5839  162.4429 C.ar    1  UNL1        0.0001
     16 C         143.4032  144.3666  162.9620 C.ar    1  UNL1        0.0015
     17 C         142.5262  143.7847  164.0306 C.ar    1  UNL1        0.0177
     18 C         139.2634  141.7181  163.2115 C.2     1  UNL1        0.0032
     19 C         140.3514  140.8888  163.8267 C.2     1  UNL1        0.0375
     20 C         138.7405  142.4802  159.3520 C.ar    1  UNL1        0.1547
     21 C         139.0970  142.6638  160.7974 C.ar    1  UNL1        0.0384
     22 C         138.9068  141.5345  161.7661 C.ar    1  UNL1        0.0032
     23 C         138.3601  140.2215  161.2894 C.ar    1  UNL1        0.0017
     24 C         138.0035  140.0380  159.8440 C.ar    1  UNL1        0.0206
     25 C         138.1937  141.1673  158.8753 C.ar    1  UNL1        0.0994
     26 N         137.8372  140.9837  157.4300 N.ar    1  UNL1       -0.2839
     27 C         138.8018  140.7343  156.3087 C.ar    1  UNL1        0.1826
     28 N         138.0142  140.6137  155.0377 N.ar    1  UNL1       -0.2280
     29 C         136.5627  140.7886  155.3736 C.ar    1  UNL1        0.0786
     30 C         135.4212  140.7429  154.4017 C.3     1  UNL1        0.0538
     31 C         136.4533  141.0173  156.8520 C.ar    1  UNL1        0.0963
     32 C         140.3133  144.0828  158.0452 C.3     1  UNL1        0.2525
     33 O         138.9307  143.6096  158.3834 O.3     1  UNL1       -0.4700
@<TRIPOS>BOND
     1    32    33    1
     2    33    20    1
     3    20    21   ar
     4    21    22   ar
     5    22    18    1
     6    18    19    2
     7    19     1    1
     8     1     2   ar
     9     2     3   ar
    10     3     4   ar
    11     4     5   ar
    12     5     6   ar
    13     6     7   ar
    14     7     8   ar
    15     8     9   ar
    16     9    10    2
    17     9    11   ar
    18    11    12    1
    19    12    13   ar
    20    13    14   ar
    21    14    15   ar
    22    15    16   ar
    23    16    17   ar
    24    22    23   ar
    25    23    24   ar
    26    24    25   ar
    27    25    26    1
    28    26    27   ar
    29    27    28   ar
    30    28    29   ar
    31    29    30    1
    32    29    31   ar
    33    25    20   ar
    34    31    26   ar
    35    11     1   ar
    36    17    12   ar
    37     8     3   ar
@<TRIPOS>MOLECULE
*****
 33 37 0 0 0
SMALL
GASTEIGER

@<TRIPOS>ATOM
      1 C         142.1292  138.1498  159.0733 C.ar    1  UNL1        0.1499
      2 N         142.9948  137.0683  158.4980 N.ar    1  UNL1       -0.2277
      3 C         142.7553  136.5799  157.1001 C.ar    1  UNL1        0.0875
      4 C         143.6209  135.4984  156.5249 C.ar    1  UNL1        0.0193
      5 C         143.3814  135.0100  155.1270 C.ar    1  UNL1        0.0015
      6 C         142.2762  135.6031  154.3044 C.ar    1  UNL1        0.0003
      7 C         141.4105  136.6846  154.8796 C.ar    1  UNL1        0.0063
      8 C         141.6501  137.1730  156.2775 C.ar    1  UNL1        0.0742
      9 C         140.7844  138.2546  156.8528 C.ar    1  UNL1        0.2672
     10 O         139.6792  138.8477  156.0302 O.2     1  UNL1       -0.2665
     11 N         141.0240  138.7430  158.2506 N.ar    1  UNL1       -0.2592
     12 C         140.1583  139.8245  158.8259 C.ar    1  UNL1        0.0682
     13 C         138.9101  139.4663  159.5767 C.ar    1  UNL1        0.0177
     14 C         138.0444  140.5478  160.1520 C.ar    1  UNL1        0.0015
     15 C         138.4270  141.9875  159.9765 C.ar    1  UNL1        0.0001
     16 C         139.6752  142.3457  159.2257 C.ar    1  UNL1        0.0015
     17 C         140.5408  141.2642  158.6504 C.ar    1  UNL1        0.0177
     18 C         141.6507  137.9988  161.6225 C.2     1  UNL1        0.0032
     19 C         142.3687  138.6383  160.4712 C.2     1  UNL1        0.0375
     20 C         140.9678  139.2481  165.3269 C.ar    1  UNL1        0.1547
     21 C         140.7283  138.7597  163.9290 C.ar    1  UNL1        0.0384
     22 C         141.8902  138.4872  163.0203 C.ar    1  UNL1        0.0032
     23 C         143.2916  138.7032  163.5095 C.ar    1  UNL1        0.0017
     24 C         143.5312  139.1917  164.9074 C.ar    1  UNL1        0.0206
     25 C         142.3693  139.4642  165.8160 C.ar    1  UNL1        0.0994
     26 N         142.6088  139.9526  167.2139 N.ar    1  UNL1       -0.2839
     27 C         142.7591  139.0936  168.4344 C.ar    1  UNL1        0.1826
     28 N         142.9833  139.9960  169.6116 N.ar    1  UNL1       -0.2280
     29 C         142.9716  141.4127  169.1185 C.ar    1  UNL1        0.0786
     30 C         143.1585  142.6405  169.9595 C.3     1  UNL1        0.0538
     31 C         142.7402  141.3858  167.6367 C.ar    1  UNL1        0.0963
     32 C         138.5073  138.7987  166.0295 C.3     1  UNL1        0.2525
     33 O         139.8059  139.5206  166.2355 O.3     1  UNL1       -0.4700
@<TRIPOS>BOND
     1    32    33    1
     2    33    20    1
     3    20    21   ar
     4    21    22   ar
     5    22    18    1
     6    18    19    2
     7    19     1    1
     8     1     2   ar
     9     2     3   ar
    10     3     4   ar
    11     4     5   ar
    12     5     6   ar
    13     6     7   ar
    14     7     8   ar
    15     8     9   ar
    16     9    10    2
    17     9    11   ar
    18    11    12    1
    19    12    13   ar
    20    13    14   ar
    21    14    15   ar
    22    15    16   ar
    23    16    17   ar
    24    22    23   ar
    25    23    24   ar
    26    24    25   ar
    27    25    26    1
    28    26    27   ar
    29    27    28   ar
    30    28    29   ar
    31    29    30    1
    32    29    31   ar
    33    25    20   ar
    34    31    26   ar
    35    11     1   ar
    36    17    12   ar
    37     8     3   ar
@<TRIPOS>MOLECULE
*****
 33 37 0 0 0
SMALL
GASTEIGER

@<TRIPOS>ATOM
      1 C         137.9253  140.4420  157.9217 C.ar    1  UNL1        0.1499
      2 N         136.5348  140.7609  157.4585 N.ar    1  UNL1       -0.2277
      3 C         136.1975  140.6972  155.9983 C.ar    1  UNL1        0.0875
      4 C         134.8070  141.0161  155.5351 C.ar    1  UNL1        0.0193
      5 C         134.4698  140.9524  154.0749 C.ar    1  UNL1        0.0015
      6 C         135.5231  140.5696  153.0779 C.ar    1  UNL1        0.0003
      7 C         136.9137  140.2506  153.5411 C.ar    1  UNL1        0.0063
      8 C         137.2509  140.3144  155.0013 C.ar    1  UNL1        0.0742
      9 C         138.6415  139.9954  155.4646 C.ar    1  UNL1        0.2672
     10 O         139.6948  139.6127  154.4676 O.2     1  UNL1       -0.2665
     11 N         138.9786  140.0592  156.9248 N.ar    1  UNL1       -0.2592
     12 C         140.3692  139.7402  157.3881 C.ar    1  UNL1        0.0682
     13 C         140.7284  138.3351  157.7707 C.ar    1  UNL1        0.0177
     14 C         142.1189  138.0160  158.2340 C.ar    1  UNL1        0.0015
     15 C         143.1503  139.1022  158.3146 C.ar    1  UNL1        0.0001
     16 C         142.7911  140.5074  157.9319 C.ar    1  UNL1        0.0015
     17 C         141.4006  140.8264  157.4687 C.ar    1  UNL1        0.0177
     18 C         137.5111  139.6557  160.3631 C.2     1  UNL1        0.0032
     19 C         138.2625  140.5058  159.3820 C.2     1  UNL1        0.0375
     20 C         138.8793  138.6290  163.9441 C.ar    1  UNL1        0.1547
     21 C         138.5421  138.5652  162.4840 C.ar    1  UNL1        0.0384
     22 C         137.8483  139.7195  161.8233 C.ar    1  UNL1        0.0032
     23 C         137.4919  140.9376  162.6228 C.ar    1  UNL1        0.0017
     24 C         137.8292  141.0013  164.0831 C.ar    1  UNL1        0.0206
     25 C         138.5229  139.8471  164.7437 C.ar    1  UNL1        0.0994
     26 N         138.8602  139.9109  166.2039 N.ar    1  UNL1       -0.2839
     27 C         138.1582  139.1714  167.3041 C.ar    1  UNL1        0.1826
     28 N         138.8229  139.5289  168.6005 N.ar    1  UNL1       -0.2280
     29 C         139.9356  140.4893  168.3014 C.ar    1  UNL1        0.0786
     30 C         140.8625  141.1055  169.3069 C.3     1  UNL1        0.0538
     31 C         139.9587  140.7254  166.8203 C.ar    1  UNL1        0.0963
     32 C         141.0244  137.2147  164.3293 C.3     1  UNL1        0.2525
     33 O         139.5730  137.4748  164.6047 O.3     1  UNL1       -0.4700
@<TRIPOS>BOND
     1    32    33    1
     2    33    20    1
     3    20    21   ar
     4    21    22   ar
     5    22    18    1
     6    18    19    2
     7    19     1    1
     8     1     2   ar
     9     2     3   ar
    10     3     4   ar
    11     4     5   ar
    12     5     6   ar
    13     6     7   ar
    14     7     8   ar
    15     8     9   ar
    16     9    10    2
    17     9    11   ar
    18    11    12    1
    19    12    13   ar
    20    13    14   ar
    21    14    15   ar
    22    15    16   ar
    23    16    17   ar
    24    22    23   ar
    25    23    24   ar
    26    24    25   ar
    27    25    26    1
    28    26    27   ar
    29    27    28   ar
    30    28    29   ar
    31    29    30    1
    32    29    31   ar
    33    25    20   ar
    34    31    26   ar
    35    11     1   ar
    36    17    12   ar
    37     8     3   ar
@<TRIPOS>MOLECULE
*****
 33 37 0 0 0
SMALL
GASTEIGER

@<TRIPOS>ATOM
      1 C         141.8064  141.1076  165.0843 C.ar    1  UNL1        0.1499
      2 N         142.3783  140.0776  166.0127 N.ar    1  UNL1       -0.2277
      3 C         142.1319  140.1791  167.4889 C.ar    1  UNL1        0.0875
      4 C         142.7039  139.1491  168.4173 C.ar    1  UNL1        0.0193
      5 C         142.4575  139.2507  169.8934 C.ar    1  UNL1        0.0015
      6 C         141.6391  140.3822  170.4411 C.ar    1  UNL1        0.0003
      7 C         141.0672  141.4122  169.5127 C.ar    1  UNL1        0.0063
      8 C         141.3136  141.3106  168.0366 C.ar    1  UNL1        0.0742
      9 C         140.7416  142.3406  167.1081 C.ar    1  UNL1        0.2672
     10 O         139.9233  143.4722  167.6558 O.2     1  UNL1       -0.2665
     11 N         140.9880  142.2391  165.6320 N.ar    1  UNL1       -0.2592
     12 C         140.4161  143.2691  164.7035 C.ar    1  UNL1        0.0682
     13 C         138.9757  143.1908  164.2923 C.ar    1  UNL1        0.0177
     14 C         138.4037  144.2207  163.3639 C.ar    1  UNL1        0.0015
     15 C         139.2721  145.3289  162.8466 C.ar    1  UNL1        0.0001
     16 C         140.7126  145.4072  163.2578 C.ar    1  UNL1        0.0015
     17 C         141.2845  144.3773  164.1863 C.ar    1  UNL1        0.0177
     18 C         143.2996  141.5911  163.0139 C.2     1  UNL1        0.0032
     19 C         142.0528  141.0061  163.6081 C.2     1  UNL1        0.0375
     20 C         143.6969  140.0577  159.3751 C.ar    1  UNL1        0.1547
     21 C         143.4506  140.1593  160.8512 C.ar    1  UNL1        0.0384
     22 C         143.5459  141.4896  161.5378 C.ar    1  UNL1        0.0032
     23 C         143.8876  142.7183  160.7482 C.ar    1  UNL1        0.0017
     24 C         144.1340  142.6167  159.2720 C.ar    1  UNL1        0.0206
     25 C         144.0386  141.2864  158.5855 C.ar    1  UNL1        0.0994
     26 N         144.2849  141.1849  157.1094 N.ar    1  UNL1       -0.2839
     27 C         143.2356  141.0267  156.0492 C.ar    1  UNL1        0.1826
     28 N         143.9261  140.9678  154.7187 N.ar    1  UNL1       -0.2280
     29 C         145.4021  141.0896  154.9567 C.ar    1  UNL1        0.0786
     30 C         146.4689  141.0791  153.9024 C.3     1  UNL1        0.0538
     31 C         145.6239  141.2238  156.4342 C.ar    1  UNL1        0.0963
     32 C         142.2579  138.1197  158.4142 C.3     1  UNL1        0.2525
     33 O         143.6016  138.7275  158.6886 O.3     1  UNL1       -0.4700
@<TRIPOS>BOND
     1    32    33    1
     2    33    20    1
     3    20    21   ar
     4    21    22   ar
     5    22    18    1
     6    18    19    2
     7    19     1    1
     8     1     2   ar
     9     2     3   ar
    10     3     4   ar
    11     4     5   ar
    12     5     6   ar
    13     6     7   ar
    14     7     8   ar
    15     8     9   ar
    16     9    10    2
    17     9    11   ar
    18    11    12    1
    19    12    13   ar
    20    13    14   ar
    21    14    15   ar
    22    15    16   ar
    23    16    17   ar
    24    22    23   ar
    25    23    24   ar
    26    24    25   ar
    27    25    26    1
    28    26    27   ar
    29    27    28   ar
    30    28    29   ar
    31    29    30    1
    32    29    31   ar
    33    25    20   ar
    34    31    26   ar
    35    11     1   ar
    36    17    12   ar
    37     8     3   ar
