@<TRIPOS>MOLECULE
*****
 31 33 0 0 0
SMALL
GASTEIGER

@<TRIPOS>ATOM
      1 C         138.3244  140.4248  161.3778 C.ar    1  UNL1        0.1647
      2 C         137.6888  140.4057  162.7364 C.ar    1  UNL1        0.1571
      3 N         137.4952  141.6870  163.4919 N.ar    1  UNL1       -0.1616
      4 N         137.9370  142.9874  162.8886 N.ar    1  UNL1       -0.2084
      5 C         138.5725  143.0065  161.5301 C.ar    1  UNL1        0.2799
      6 O         139.0143  144.3068  160.9269 O.2     1  UNL1       -0.2654
      7 C         138.7662  141.7251  160.7747 C.ar    1  UNL1        0.1007
      8 O         138.5181  139.1434  160.6224 O.3     1  UNL1       -0.4672
      9 C         139.8527  138.4591  160.6361 C.3     1  UNL1        0.2509
     10 C         142.2123  138.2061  164.4595 C.ar    1  UNL1        0.1578
     11 C         142.4076  139.3696  163.5333 C.ar    1  UNL1        0.0398
     12 C         141.6210  139.4540  162.2588 C.ar    1  UNL1        0.0216
     13 C         140.6393  138.3747  161.9106 C.ar    1  UNL1        0.1029
     14 N         140.4440  137.2112  162.8368 N.ar    1  UNL1       -0.2413
     15 C         141.2305  137.1268  164.1113 C.ar    1  UNL1        0.1353
     16 C         142.8492  139.1868  166.7795 C.3     1  UNL1        0.2525
     17 O         142.9988  138.1217  165.7340 O.3     1  UNL1       -0.4699
     18 C         137.7434  144.2688  163.6441 C.3     1  UNL1        0.1992
     19 C         138.7377  144.6811  164.6888 C.2     1  UNL1        0.1974
     20 O         138.2750  145.3950  165.9242 O.2     1  UNL1       -0.2892
     21 C         140.1946  144.3795  164.4980 C.ar    1  UNL1        0.0328
     22 C         141.0359  145.2644  163.6267 C.ar    1  UNL1        0.0023
     23 C         142.4928  144.9628  163.4360 C.ar    1  UNL1       -0.0028
     24 C         143.1085  143.7763  164.1166 C.ar    1  UNL1       -0.0065
     25 C         142.2672  142.8914  164.9879 C.ar    1  UNL1       -0.0071
     26 C         140.8103  143.1930  165.1787 C.ar    1  UNL1       -0.0193
     27 C         139.9690  142.3081  166.0500 C.3     1  UNL1        0.0311
     28 C         144.5654  143.4747  163.9258 C.3     1  UNL1        0.0992
     29 N         144.9848  142.2517  163.1654 N.3     1  UNL1       -0.2665
     30 C         144.7471  142.1697  161.6866 C.3     1  UNL1        0.0899
     31 C         145.6420  141.1106  163.8838 C.3     1  UNL1        0.0899
@<TRIPOS>BOND
     1    16    17    1
     2    17    10    1
     3    10    11   ar
     4    11    12   ar
     5    12    13   ar
     6    13     9    1
     7     9     8    1
     8     8     1    1
     9     1     2   ar
    10     2     3   ar
    11     3     4   ar
    12     4    18    1
    13    18    19    1
    14    19    20    2
    15    19    21    1
    16    21    22   ar
    17    22    23   ar
    18    23    24   ar
    19    24    28    1
    20    28    29    1
    21    29    30    1
    22    29    31    1
    23    24    25   ar
    24    25    26   ar
    25    26    27    1
    26     4     5   ar
    27     5     6    2
    28     5     7   ar
    29    13    14   ar
    30    14    15   ar
    31    15    10   ar
    32     7     1   ar
    33    26    21   ar
@<TRIPOS>MOLECULE
*****
 31 33 0 0 0
SMALL
GASTEIGER

@<TRIPOS>ATOM
      1 C         140.1651  144.6539  162.3637 C.ar    1  UNL1        0.1647
      2 C         140.6567  143.5819  161.4368 C.ar    1  UNL1        0.1571
      3 N         142.0948  143.1572  161.4770 N.ar    1  UNL1       -0.1616
      4 N         143.0412  143.8045  162.4442 N.ar    1  UNL1       -0.2084
      5 C         142.5495  144.8765  163.3711 C.ar    1  UNL1        0.2799
      6 O         143.4959  145.5237  164.3382 O.2     1  UNL1       -0.2654
      7 C         141.1115  145.3012  163.3309 C.ar    1  UNL1        0.1007
      8 O         138.7270  145.0786  162.3235 O.3     1  UNL1       -0.4672
      9 C         137.6862  144.2715  163.0412 C.3     1  UNL1        0.2509
     10 C         138.2619  139.8433  163.5984 C.ar    1  UNL1        0.1578
     11 C         138.6014  140.7897  164.7115 C.ar    1  UNL1        0.0398
     12 C         138.4095  142.2657  164.5258 C.ar    1  UNL1        0.0216
     13 C         137.8781  142.7954  163.2270 C.ar    1  UNL1        0.1029
     14 N         137.5386  141.8491  162.1138 N.ar    1  UNL1       -0.2413
     15 C         137.7305  140.3730  162.2996 C.ar    1  UNL1        0.1353
     16 C         138.9696  137.8363  165.0887 C.3     1  UNL1        0.2525
     17 O         138.4538  138.3673  163.7841 O.3     1  UNL1       -0.4699
     18 C         144.4793  143.3798  162.4845 C.3     1  UNL1        0.1992
     19 C         144.8984  142.2325  163.3552 C.2     1  UNL1        0.1974
     20 O         146.2739  141.6503  163.2180 O.2     1  UNL1       -0.2892
     21 C         143.9419  141.6675  164.3631 C.ar    1  UNL1        0.0328
     22 C         143.7109  142.3829  165.6612 C.ar    1  UNL1        0.0023
     23 C         142.7545  141.8179  166.6691 C.ar    1  UNL1       -0.0028
     24 C         142.0289  140.5375  166.3790 C.ar    1  UNL1       -0.0065
     25 C         142.2598  139.8221  165.0809 C.ar    1  UNL1       -0.0071
     26 C         143.2163  140.3871  164.0730 C.ar    1  UNL1       -0.0193
     27 C         143.4472  139.6718  162.7750 C.3     1  UNL1        0.0311
     28 C         141.0724  139.9725  167.3869 C.3     1  UNL1        0.0992
     29 N         141.2756  140.2439  168.8481 N.3     1  UNL1       -0.2665
     30 C         142.3587  139.5288  169.6001 C.3     1  UNL1        0.0899
     31 C         140.3958  141.2303  169.5572 C.3     1  UNL1        0.0899
@<TRIPOS>BOND
     1    16    17    1
     2    17    10    1
     3    10    11   ar
     4    11    12   ar
     5    12    13   ar
     6    13     9    1
     7     9     8    1
     8     8     1    1
     9     1     2   ar
    10     2     3   ar
    11     3     4   ar
    12     4    18    1
    13    18    19    1
    14    19    20    2
    15    19    21    1
    16    21    22   ar
    17    22    23   ar
    18    23    24   ar
    19    24    28    1
    20    28    29    1
    21    29    30    1
    22    29    31    1
    23    24    25   ar
    24    25    26   ar
    25    26    27    1
    26     4     5   ar
    27     5     6    2
    28     5     7   ar
    29    13    14   ar
    30    14    15   ar
    31    15    10   ar
    32     7     1   ar
    33    26    21   ar
@<TRIPOS>MOLECULE
*****
 31 33 0 0 0
SMALL
GASTEIGER

@<TRIPOS>ATOM
      1 C         140.1248  144.7144  162.1478 C.ar    1  UNL1        0.1647
      2 C         141.0664  145.4118  163.0844 C.ar    1  UNL1        0.1571
      3 N         142.5081  145.0017  163.1416 N.ar    1  UNL1       -0.1616
      4 N         143.0083  143.8942  162.2622 N.ar    1  UNL1       -0.2084
      5 C         142.0668  143.1969  161.3256 C.ar    1  UNL1        0.2799
      6 O         142.5670  142.0895  160.4462 O.2     1  UNL1       -0.2654
      7 C         140.6251  143.6070  161.2684 C.ar    1  UNL1        0.1007
      8 O         138.6831  145.1245  162.0906 O.3     1  UNL1       -0.4672
      9 C         137.6804  144.4682  162.9927 C.3     1  UNL1        0.2509
     10 C         138.2272  140.1726  164.2170 C.ar    1  UNL1        0.1578
     11 C         138.6276  141.2756  165.1514 C.ar    1  UNL1        0.0398
     12 C         138.4453  142.7075  164.7433 C.ar    1  UNL1        0.0216
     13 C         137.8626  143.0364  163.4008 C.ar    1  UNL1        0.1029
     14 N         137.4623  141.9334  162.4664 N.ar    1  UNL1       -0.2413
     15 C         137.6446  140.5015  162.8745 C.ar    1  UNL1        0.1353
     16 C         138.3701  138.3637  166.0764 C.3     1  UNL1        0.2525
     17 O         138.4095  138.7408  164.6251 O.3     1  UNL1       -0.4699
     18 C         144.4500  143.4841  162.3194 C.3     1  UNL1        0.1992
     19 C         144.8716  142.3459  163.2008 C.2     1  UNL1        0.1974
     20 O         146.1923  141.6717  162.9748 O.2     1  UNL1       -0.2892
     21 C         143.9724  141.8819  164.3081 C.ar    1  UNL1        0.0328
     22 C         143.1116  140.6685  164.1167 C.ar    1  UNL1        0.0023
     23 C         142.2124  140.2046  165.2240 C.ar    1  UNL1       -0.0028
     24 C         142.1740  140.9540  166.5228 C.ar    1  UNL1       -0.0065
     25 C         143.0348  142.1675  166.7143 C.ar    1  UNL1       -0.0071
     26 C         143.9340  142.6314  165.6069 C.ar    1  UNL1       -0.0193
     27 C         144.7948  143.8448  165.7984 C.3     1  UNL1        0.0311
     28 C         141.2748  140.4900  167.6301 C.3     1  UNL1        0.0992
     29 N         141.4034  141.0865  169.0004 N.3     1  UNL1       -0.2665
     30 C         140.4654  142.1728  169.4365 C.3     1  UNL1        0.0899
     31 C         142.4699  140.5967  169.9346 C.3     1  UNL1        0.0899
@<TRIPOS>BOND
     1    16    17    1
     2    17    10    1
     3    10    11   ar
     4    11    12   ar
     5    12    13   ar
     6    13     9    1
     7     9     8    1
     8     8     1    1
     9     1     2   ar
    10     2     3   ar
    11     3     4   ar
    12     4    18    1
    13    18    19    1
    14    19    20    2
    15    19    21    1
    16    21    22   ar
    17    22    23   ar
    18    23    24   ar
    19    24    28    1
    20    28    29    1
    21    29    30    1
    22    29    31    1
    23    24    25   ar
    24    25    26   ar
    25    26    27    1
    26     4     5   ar
    27     5     6    2
    28     5     7   ar
    29    13    14   ar
    30    14    15   ar
    31    15    10   ar
    32     7     1   ar
    33    26    21   ar
@<TRIPOS>MOLECULE
*****
 31 33 0 0 0
SMALL
GASTEIGER

@<TRIPOS>ATOM
      1 C         141.7210  138.1216  161.7019 C.ar    1  UNL1        0.1647
      2 C         142.1813  137.8855  163.1099 C.ar    1  UNL1        0.1571
      3 N         141.1750  137.7026  164.2072 N.ar    1  UNL1       -0.1616
      4 N         139.7085  137.7557  163.8963 N.ar    1  UNL1       -0.2084
      5 C         139.2483  137.9918  162.4884 C.ar    1  UNL1        0.2799
      6 O         137.7818  138.0449  162.1776 O.2     1  UNL1       -0.2654
      7 C         140.2546  138.1747  161.3911 C.ar    1  UNL1        0.1007
      8 O         142.7273  138.3045  160.6046 O.3     1  UNL1       -0.4672
      9 C         144.0667  138.9076  160.9083 C.3     1  UNL1        0.2509
     10 C         144.3675  143.2378  162.0954 C.ar    1  UNL1        0.1578
     11 C         143.9105  142.8685  160.7153 C.ar    1  UNL1        0.0398
     12 C         143.8102  141.4251  160.3196 C.ar    1  UNL1        0.0216
     13 C         144.1670  140.3510  161.3040 C.ar    1  UNL1        0.1029
     14 N         144.6241  140.7203  162.6841 N.ar    1  UNL1       -0.2413
     15 C         144.7243  142.1637  163.0798 C.ar    1  UNL1        0.1353
     16 C         143.6023  145.2190  163.5918 C.3     1  UNL1        0.2525
     17 O         144.4678  144.6812  162.4911 O.3     1  UNL1       -0.4699
     18 C         138.7022  137.5728  164.9936 C.3     1  UNL1        0.1992
     19 C         138.2366  138.7562  165.7892 C.2     1  UNL1        0.1974
     20 O         137.3966  138.5523  167.0150 O.2     1  UNL1       -0.2892
     21 C         138.6110  140.1435  165.3588 C.ar    1  UNL1        0.0328
     22 C         137.7655  140.8716  164.3563 C.ar    1  UNL1        0.0023
     23 C         138.1399  142.2589  163.9260 C.ar    1  UNL1       -0.0028
     24 C         139.3598  142.9181  164.4980 C.ar    1  UNL1       -0.0065
     25 C         140.2053  142.1900  165.5006 C.ar    1  UNL1       -0.0071
     26 C         139.8309  140.8027  165.9309 C.ar    1  UNL1       -0.0193
     27 C         140.6764  140.0746  166.9334 C.3     1  UNL1        0.0311
     28 C         139.7342  144.3054  164.0677 C.3     1  UNL1        0.0992
     29 N         140.0842  144.5773  162.6347 N.3     1  UNL1       -0.2665
     30 C         140.6180  143.4736  161.7706 C.3     1  UNL1        0.0899
     31 C         139.9004  145.9531  162.0658 C.3     1  UNL1        0.0899
@<TRIPOS>BOND
     1    16    17    1
     2    17    10    1
     3    10    11   ar
     4    11    12   ar
     5    12    13   ar
     6    13     9    1
     7     9     8    1
     8     8     1    1
     9     1     2   ar
    10     2     3   ar
    11     3     4   ar
    12     4    18    1
    13    18    19    1
    14    19    20    2
    15    19    21    1
    16    21    22   ar
    17    22    23   ar
    18    23    24   ar
    19    24    28    1
    20    28    29    1
    21    29    30    1
    22    29    31    1
    23    24    25   ar
    24    25    26   ar
    25    26    27    1
    26     4     5   ar
    27     5     6    2
    28     5     7   ar
    29    13    14   ar
    30    14    15   ar
    31    15    10   ar
    32     7     1   ar
    33    26    21   ar
@<TRIPOS>MOLECULE
*****
 31 33 0 0 0
SMALL
GASTEIGER

@<TRIPOS>ATOM
      1 C         139.2504  143.1588  160.6148 C.ar    1  UNL1        0.1647
      2 C         139.8482  141.9278  160.0006 C.ar    1  UNL1        0.1571
      3 N         139.5114  140.5746  160.5533 N.ar    1  UNL1       -0.1616
      4 N         138.5769  140.4524  161.7202 N.ar    1  UNL1       -0.2084
      5 C         137.9791  141.6834  162.3344 C.ar    1  UNL1        0.2799
      6 O         137.0446  141.5612  163.5013 O.2     1  UNL1       -0.2654
      7 C         138.3158  143.0366  161.7817 C.ar    1  UNL1        0.1007
      8 O         139.5871  144.5120  160.0621 O.3     1  UNL1       -0.4672
      9 C         140.6079  145.3699  160.7491 C.3     1  UNL1        0.2509
     10 C         143.7735  143.4746  163.3252 C.ar    1  UNL1        0.1578
     11 C         142.6020  144.1626  163.9609 C.ar    1  UNL1        0.0398
     12 C         141.5468  144.7944  163.1022 C.ar    1  UNL1        0.0216
     13 C         141.6631  144.7381  161.6078 C.ar    1  UNL1        0.1029
     14 N         142.8346  144.0501  160.9721 N.ar    1  UNL1       -0.2413
     15 C         143.8898  143.4184  161.8308 C.ar    1  UNL1        0.1353
     16 C         145.6930  141.7501  163.6280 C.3     1  UNL1        0.2525
     17 O         144.8288  142.8428  164.1839 O.3     1  UNL1       -0.4699
     18 C         138.2401  139.0992  162.2729 C.3     1  UNL1        0.1992
     19 C         139.1657  138.4365  163.2498 C.2     1  UNL1        0.1974
     20 O         139.9869  137.2562  162.8226 O.2     1  UNL1       -0.2892
     21 C         139.2700  138.9541  164.6538 C.ar    1  UNL1        0.0328
     22 C         138.3114  138.4746  165.7031 C.ar    1  UNL1        0.0023
     23 C         138.4157  138.9923  167.1070 C.ar    1  UNL1       -0.0028
     24 C         139.4787  139.9894  167.4617 C.ar    1  UNL1       -0.0065
     25 C         140.4374  140.4689  166.4124 C.ar    1  UNL1       -0.0071
     26 C         140.3331  139.9513  165.0084 C.ar    1  UNL1       -0.0193
     27 C         141.2917  140.4308  163.9591 C.3     1  UNL1        0.0311
     28 C         139.5830  140.5070  168.8657 C.3     1  UNL1        0.0992
     29 N         140.9274  140.6442  169.5166 N.3     1  UNL1       -0.2665
     30 C         141.7653  139.4263  169.7709 C.3     1  UNL1        0.0899
     31 C         141.4340  141.9993  169.9130 C.3     1  UNL1        0.0899
@<TRIPOS>BOND
     1    16    17    1
     2    17    10    1
     3    10    11   ar
     4    11    12   ar
     5    12    13   ar
     6    13     9    1
     7     9     8    1
     8     8     1    1
     9     1     2   ar
    10     2     3   ar
    11     3     4   ar
    12     4    18    1
    13    18    19    1
    14    19    20    2
    15    19    21    1
    16    21    22   ar
    17    22    23   ar
    18    23    24   ar
    19    24    28    1
    20    28    29    1
    21    29    30    1
    22    29    31    1
    23    24    25   ar
    24    25    26   ar
    25    26    27    1
    26     4     5   ar
    27     5     6    2
    28     5     7   ar
    29    13    14   ar
    30    14    15   ar
    31    15    10   ar
    32     7     1   ar
    33    26    21   ar
@<TRIPOS>MOLECULE
*****
 31 33 0 0 0
SMALL
GASTEIGER

@<TRIPOS>ATOM
      1 C         142.7276  143.7511  161.1737 C.ar    1  UNL1        0.1647
      2 C         142.9197  144.4520  162.4859 C.ar    1  UNL1        0.1571
      3 N         141.7287  144.9316  163.2615 N.ar    1  UNL1       -0.1616
      4 N         140.3455  144.7102  162.7248 N.ar    1  UNL1       -0.2084
      5 C         140.1535  144.0093  161.4126 C.ar    1  UNL1        0.2799
      6 O         138.7704  143.7879  160.8761 O.2     1  UNL1       -0.2654
      7 C         141.3445  143.5297  160.6371 C.ar    1  UNL1        0.1007
      8 O         143.9186  143.2716  160.3981 O.3     1  UNL1       -0.4672
      9 C         144.3078  141.8236  160.4404 C.3     1  UNL1        0.2509
     10 C         144.0998  139.5502  164.3184 C.ar    1  UNL1        0.1578
     11 C         145.1813  140.5669  164.1021 C.ar    1  UNL1        0.0398
     12 C         145.2506  141.3247  162.8094 C.ar    1  UNL1        0.0216
     13 C         144.2385  141.0658  161.7331 C.ar    1  UNL1        0.1029
     14 N         143.1570  140.0492  161.9494 N.ar    1  UNL1       -0.2413
     15 C         143.0877  139.2914  163.2421 C.ar    1  UNL1        0.1353
     16 C         142.9829  139.1377  166.6275 C.3     1  UNL1        0.2525
     17 O         144.0305  138.7925  165.6110 O.3     1  UNL1       -0.4699
     18 C         139.1545  145.1897  163.5004 C.3     1  UNL1        0.1992
     19 C         138.6875  144.4275  164.7050 C.2     1  UNL1        0.1974
     20 O         138.2016  145.1651  165.9173 O.2     1  UNL1       -0.2892
     21 C         138.7063  142.9276  164.6971 C.ar    1  UNL1        0.0328
     22 C         137.7528  142.1701  163.8214 C.ar    1  UNL1        0.0023
     23 C         137.7716  140.6703  163.8135 C.ar    1  UNL1       -0.0028
     24 C         138.7440  139.9279  164.6815 C.ar    1  UNL1       -0.0065
     25 C         139.6976  140.6854  165.5573 C.ar    1  UNL1       -0.0071
     26 C         139.6787  142.1852  165.5651 C.ar    1  UNL1       -0.0193
     27 C         140.6322  142.9427  166.4409 C.3     1  UNL1        0.0311
     28 C         138.7628  138.4280  164.6736 C.3     1  UNL1        0.0992
     29 N         139.7796  137.6950  163.8497 N.3     1  UNL1       -0.2665
     30 C         139.7139  137.7524  162.3523 C.3     1  UNL1        0.0899
     31 C         140.8620  136.9046  164.5232 C.3     1  UNL1        0.0899
@<TRIPOS>BOND
     1    16    17    1
     2    17    10    1
     3    10    11   ar
     4    11    12   ar
     5    12    13   ar
     6    13     9    1
     7     9     8    1
     8     8     1    1
     9     1     2   ar
    10     2     3   ar
    11     3     4   ar
    12     4    18    1
    13    18    19    1
    14    19    20    2
    15    19    21    1
    16    21    22   ar
    17    22    23   ar
    18    23    24   ar
    19    24    28    1
    20    28    29    1
    21    29    30    1
    22    29    31    1
    23    24    25   ar
    24    25    26   ar
    25    26    27    1
    26     4     5   ar
    27     5     6    2
    28     5     7   ar
    29    13    14   ar
    30    14    15   ar
    31    15    10   ar
    32     7     1   ar
    33    26    21   ar
@<TRIPOS>MOLECULE
*****
 31 33 0 0 0
SMALL
GASTEIGER

@<TRIPOS>ATOM
      1 C         138.3585  144.1396  162.5704 C.ar    1  UNL1        0.1647
      2 C         138.0616  143.8505  164.0121 C.ar    1  UNL1        0.1571
      3 N         137.8696  142.4347  164.4689 N.ar    1  UNL1       -0.1616
      4 N         137.9745  141.3081  163.4841 N.ar    1  UNL1       -0.2084
      5 C         138.2713  141.5972  162.0425 C.ar    1  UNL1        0.2799
      6 O         138.3762  140.4707  161.0578 O.2     1  UNL1       -0.2654
      7 C         138.4633  143.0130  161.5857 C.ar    1  UNL1        0.1007
      8 O         138.5504  145.5554  162.1136 O.3     1  UNL1       -0.4672
      9 C         139.9315  146.1337  162.0237 C.3     1  UNL1        0.2509
     10 C         143.5203  143.5043  162.6992 C.ar    1  UNL1        0.1578
     11 C         142.8254  144.1393  163.8670 C.ar    1  UNL1        0.0398
     12 C         141.6291  145.0158  163.6418 C.ar    1  UNL1        0.0216
     13 C         141.1278  145.2573  162.2489 C.ar    1  UNL1        0.1029
     14 N         141.8228  144.6223  161.0811 N.ar    1  UNL1       -0.2413
     15 C         143.0190  143.7458  161.3063 C.ar    1  UNL1        0.1353
     16 C         145.1285  142.2650  164.3204 C.3     1  UNL1        0.2525
     17 O         144.7166  142.6278  162.9244 O.3     1  UNL1       -0.4699
     18 C         137.7825  139.8923  163.9409 C.3     1  UNL1        0.1992
     19 C         138.9410  139.1213  164.5010 C.2     1  UNL1        0.1974
     20 O         139.2251  137.7326  164.0103 O.2     1  UNL1       -0.2892
     21 C         139.8153  139.7390  165.5517 C.ar    1  UNL1        0.0328
     22 C         139.4113  139.6771  166.9949 C.ar    1  UNL1        0.0023
     23 C         140.2856  140.2949  168.0457 C.ar    1  UNL1       -0.0028
     24 C         141.5638  140.9746  167.6531 C.ar    1  UNL1       -0.0065
     25 C         141.9678  141.0366  166.2098 C.ar    1  UNL1       -0.0071
     26 C         141.0935  140.4188  165.1591 C.ar    1  UNL1       -0.0193
     27 C         141.4975  140.4808  163.7159 C.3     1  UNL1        0.0311
     28 C         142.4381  141.5923  168.7039 C.3     1  UNL1        0.0992
     29 N         142.3040  141.1672  170.1361 N.3     1  UNL1       -0.2665
     30 C         141.5480  142.0263  171.1058 C.3     1  UNL1        0.0899
     31 C         142.9260  139.8829  170.5986 C.3     1  UNL1        0.0899
@<TRIPOS>BOND
     1    16    17    1
     2    17    10    1
     3    10    11   ar
     4    11    12   ar
     5    12    13   ar
     6    13     9    1
     7     9     8    1
     8     8     1    1
     9     1     2   ar
    10     2     3   ar
    11     3     4   ar
    12     4    18    1
    13    18    19    1
    14    19    20    2
    15    19    21    1
    16    21    22   ar
    17    22    23   ar
    18    23    24   ar
    19    24    28    1
    20    28    29    1
    21    29    30    1
    22    29    31    1
    23    24    25   ar
    24    25    26   ar
    25    26    27    1
    26     4     5   ar
    27     5     6    2
    28     5     7   ar
    29    13    14   ar
    30    14    15   ar
    31    15    10   ar
    32     7     1   ar
    33    26    21   ar
@<TRIPOS>MOLECULE
*****
 31 33 0 0 0
SMALL
GASTEIGER

@<TRIPOS>ATOM
      1 C         138.3466  144.1970  162.8269 C.ar    1  UNL1        0.1647
      2 C         138.5202  144.1344  164.3156 C.ar    1  UNL1        0.1571
      3 N         138.4335  142.8162  165.0260 N.ar    1  UNL1       -0.1616
      4 N         138.1733  141.5605  164.2477 N.ar    1  UNL1       -0.2084
      5 C         137.9997  141.6231  162.7591 C.ar    1  UNL1        0.2799
      6 O         137.7395  140.3675  161.9809 O.2     1  UNL1       -0.2654
      7 C         138.0864  142.9414  162.0487 C.ar    1  UNL1        0.1007
      8 O         138.4333  145.5153  162.1165 O.3     1  UNL1       -0.4672
      9 C         139.7734  146.1000  161.7813 C.3     1  UNL1        0.2509
     10 C         143.5186  143.7240  162.5413 C.ar    1  UNL1        0.1578
     11 C         142.7997  143.5922  161.2315 C.ar    1  UNL1        0.0398
     12 C         141.5513  144.3842  160.9782 C.ar    1  UNL1        0.0216
     13 C         141.0218  145.3080  162.0347 C.ar    1  UNL1        0.1029
     14 N         141.7407  145.4397  163.3445 N.ar    1  UNL1       -0.2413
     15 C         142.9892  144.6477  163.5978 C.ar    1  UNL1        0.1353
     16 C         145.0808  142.4491  164.1797 C.3     1  UNL1        0.2525
     17 O         144.7671  142.9320  162.7946 O.3     1  UNL1       -0.4699
     18 C         138.0866  140.2422  164.9581 C.3     1  UNL1        0.1992
     19 C         139.3394  139.5382  165.3881 C.2     1  UNL1        0.1974
     20 O         139.5441  139.1863  166.8317 O.2     1  UNL1       -0.2892
     21 C         140.3874  139.1861  164.3743 C.ar    1  UNL1        0.0328
     22 C         140.2604  137.9257  163.5711 C.ar    1  UNL1        0.0023
     23 C         141.3085  137.5736  162.5574 C.ar    1  UNL1       -0.0028
     24 C         142.4835  138.4819  162.3469 C.ar    1  UNL1       -0.0065
     25 C         142.6105  139.7423  163.1502 C.ar    1  UNL1       -0.0071
     26 C         141.5625  140.0944  164.1639 C.ar    1  UNL1       -0.0193
     27 C         141.6894  141.3548  164.9671 C.3     1  UNL1        0.0311
     28 C         143.5315  138.1297  161.3332 C.3     1  UNL1        0.0992
     29 N         143.3793  138.5787  159.9101 N.3     1  UNL1       -0.2665
     30 C         142.7624  137.6615  158.8961 C.3     1  UNL1        0.0899
     31 C         143.8440  139.9450  159.5009 C.3     1  UNL1        0.0899
@<TRIPOS>BOND
     1    16    17    1
     2    17    10    1
     3    10    11   ar
     4    11    12   ar
     5    12    13   ar
     6    13     9    1
     7     9     8    1
     8     8     1    1
     9     1     2   ar
    10     2     3   ar
    11     3     4   ar
    12     4    18    1
    13    18    19    1
    14    19    20    2
    15    19    21    1
    16    21    22   ar
    17    22    23   ar
    18    23    24   ar
    19    24    28    1
    20    28    29    1
    21    29    30    1
    22    29    31    1
    23    24    25   ar
    24    25    26   ar
    25    26    27    1
    26     4     5   ar
    27     5     6    2
    28     5     7   ar
    29    13    14   ar
    30    14    15   ar
    31    15    10   ar
    32     7     1   ar
    33    26    21   ar
@<TRIPOS>MOLECULE
*****
 31 33 0 0 0
SMALL
GASTEIGER

@<TRIPOS>ATOM
      1 C         138.2616  141.4996  164.4558 C.ar    1  UNL1        0.1647
      2 C         139.0663  142.4464  165.2961 C.ar    1  UNL1        0.1571
      3 N         139.8202  141.9359  166.4881 N.ar    1  UNL1       -0.1616
      4 N         139.7694  140.4786  166.8399 N.ar    1  UNL1       -0.2084
      5 C         138.9647  139.5318  165.9996 C.ar    1  UNL1        0.2799
      6 O         138.9139  138.0746  166.3514 O.2     1  UNL1       -0.2654
      7 C         138.2108  140.0423  164.8075 C.ar    1  UNL1        0.1007
      8 O         137.5077  142.0101  163.2637 O.3     1  UNL1       -0.4672
      9 C         137.5663  143.4657  162.9063 C.3     1  UNL1        0.2509
     10 C         140.8544  144.9981  160.2435 C.ar    1  UNL1        0.1578
     11 C         140.4712  143.5484  160.2036 C.ar    1  UNL1        0.0398
     12 C         139.3752  143.0376  161.0912 C.ar    1  UNL1        0.0216
     13 C         138.6623  143.9765  162.0187 C.ar    1  UNL1        0.1029
     14 N         139.0455  145.4261  162.0586 N.ar    1  UNL1       -0.2413
     15 C         140.1415  145.9369  161.1710 C.ar    1  UNL1        0.1353
     16 C         141.7903  145.4644  157.8652 C.3     1  UNL1        0.2525
     17 O         141.9504  145.5089  159.3559 O.3     1  UNL1       -0.4699
     18 C         140.5233  139.9680  168.0319 C.3     1  UNL1        0.1992
     19 C         142.0212  139.8958  167.9974 C.2     1  UNL1        0.1974
     20 O         142.7612  139.1533  169.0702 O.2     1  UNL1       -0.2892
     21 C         142.7790  140.5662  166.8900 C.ar    1  UNL1        0.0328
     22 C         143.1310  142.0205  166.9954 C.ar    1  UNL1        0.0023
     23 C         143.8888  142.6909  165.8880 C.ar    1  UNL1       -0.0028
     24 C         144.2947  141.9070  164.6753 C.ar    1  UNL1       -0.0065
     25 C         143.9428  140.4526  164.5699 C.ar    1  UNL1       -0.0071
     26 C         143.1849  139.7822  165.6773 C.ar    1  UNL1       -0.0193
     27 C         142.8330  138.3279  165.5720 C.3     1  UNL1        0.0311
     28 C         145.0526  142.5773  163.5679 C.3     1  UNL1        0.0992
     29 N         144.3199  143.3935  162.5447 N.3     1  UNL1       -0.2665
     30 C         143.7583  144.7338  162.9166 C.3     1  UNL1        0.0899
     31 C         144.1489  142.8695  161.1496 C.3     1  UNL1        0.0899
@<TRIPOS>BOND
     1    16    17    1
     2    17    10    1
     3    10    11   ar
     4    11    12   ar
     5    12    13   ar
     6    13     9    1
     7     9     8    1
     8     8     1    1
     9     1     2   ar
    10     2     3   ar
    11     3     4   ar
    12     4    18    1
    13    18    19    1
    14    19    20    2
    15    19    21    1
    16    21    22   ar
    17    22    23   ar
    18    23    24   ar
    19    24    28    1
    20    28    29    1
    21    29    30    1
    22    29    31    1
    23    24    25   ar
    24    25    26   ar
    25    26    27    1
    26     4     5   ar
    27     5     6    2
    28     5     7   ar
    29    13    14   ar
    30    14    15   ar
    31    15    10   ar
    32     7     1   ar
    33    26    21   ar
