@<TRIPOS>MOLECULE
*****
 17 19 0 0 0
SMALL
GASTEIGER

@<TRIPOS>ATOM
      1 C         140.4795  139.9661  168.6119 C.3     1  UNL1        0.0347
      2 C         141.4568  139.8350  167.4816 C.3     1  UNL1        0.0054
      3 C         142.7810  139.4305  168.0584 C.3     1  UNL1        0.0004
      4 C         142.6222  139.3117  169.5453 C.3     1  UNL1        0.0017
      5 C         141.1997  139.6427  169.8874 C.3     1  UNL1        0.0208
      6 C         140.2224  139.7738  171.0177 C.3     1  UNL1        0.0689
      7 N         138.8981  140.1782  170.4409 N.3     1  UNL1       -0.2972
      8 C         139.0570  140.2971  168.9540 C.3     1  UNL1        0.0726
      9 H         138.6101  141.0756  170.8311 H       1  UNL1        0.1233
     10 CL        137.5981  141.2596  163.5105 Cl      1  UNL1       -0.0814
     11 C         138.3184  140.9362  164.7858 C.ar    1  UNL1        0.0682
     12 C         138.0903  139.6170  165.4623 C.ar    1  UNL1        0.0119
     13 C         138.8106  139.2937  166.7377 C.ar    1  UNL1       -0.0033
     14 C         139.7591  140.2895  167.3365 C.ar    1  UNL1       -0.0206
     15 C         139.9873  141.6087  166.6600 C.ar    1  UNL1        0.0080
     16 C         139.2670  141.9321  165.3848 C.ar    1  UNL1        0.0679
     17 CL        139.4951  143.2513  164.7083 Cl      1  UNL1       -0.0814
@<TRIPOS>BOND
     1    10    11    1
     2    11    12   ar
     3    12    13   ar
     4    13    14   ar
     5     1    14    1
     6     1     2    1
     7     2     3    1
     8     3     4    1
     9     5     4    1
    10     5     6    1
    11     6     7    1
    12     7     8    1
    13    14    15   ar
    14    15    16   ar
    15    16    17    1
    16    16    11   ar
    17     5     1    1
    18     8     1    1
    19     7     9    1
@<TRIPOS>MOLECULE
*****
 17 19 0 0 0
SMALL
GASTEIGER

@<TRIPOS>ATOM
      1 C         138.5856  139.4729  163.6395 C.3     1  UNL1        0.0347
      2 C         139.5424  138.4228  164.1212 C.3     1  UNL1        0.0054
      3 C         139.9195  137.5665  162.9489 C.3     1  UNL1        0.0004
      4 C         139.1959  138.0873  161.7426 C.3     1  UNL1        0.0017
      5 C         138.3715  139.2655  162.1694 C.3     1  UNL1        0.0208
      6 C         137.4148  140.3155  161.6876 C.3     1  UNL1        0.0689
      7 N         137.0376  141.1719  162.8600 N.3     1  UNL1       -0.2972
      8 C         137.7612  140.6511  164.0663 C.3     1  UNL1        0.0726
      9 H         136.0303  141.1246  163.0134 H       1  UNL1        0.1233
     10 CL        139.4418  140.3025  169.5198 Cl      1  UNL1       -0.0814
     11 C         139.2278  140.0951  168.0498 C.ar    1  UNL1        0.0682
     12 C         138.2603  139.0530  167.5724 C.ar    1  UNL1        0.0119
     13 C         138.0463  138.8456  166.1023 C.ar    1  UNL1       -0.0033
     14 C         138.7997  139.6803  165.1096 C.ar    1  UNL1       -0.0206
     15 C         139.7672  140.7225  165.5869 C.ar    1  UNL1        0.0080
     16 C         139.9813  140.9299  167.0570 C.ar    1  UNL1        0.0679
     17 CL        140.9488  141.9720  167.5343 Cl      1  UNL1       -0.0814
@<TRIPOS>BOND
     1    10    11    1
     2    11    12   ar
     3    12    13   ar
     4    13    14   ar
     5     1    14    1
     6     1     2    1
     7     2     3    1
     8     3     4    1
     9     5     4    1
    10     5     6    1
    11     6     7    1
    12     7     8    1
    13    14    15   ar
    14    15    16   ar
    15    16    17    1
    16    16    11   ar
    17     5     1    1
    18     8     1    1
    19     7     9    1
@<TRIPOS>MOLECULE
*****
 17 19 0 0 0
SMALL
GASTEIGER

@<TRIPOS>ATOM
      1 C         140.3215  139.2846  166.1294 C.3     1  UNL1        0.0347
      2 C         138.9600  139.4535  166.7358 C.3     1  UNL1        0.0054
      3 C         138.0667  138.3879  166.1733 C.3     1  UNL1        0.0004
      4 C         138.8761  137.5605  165.2192 C.3     1  UNL1        0.0017
      5 C         140.2697  138.1147  165.1921 C.3     1  UNL1        0.0208
      6 C         141.6312  137.9458  164.5856 C.3     1  UNL1        0.0689
      7 N         142.5246  139.0114  165.1481 N.3     1  UNL1       -0.2972
      8 C         141.7151  139.8388  166.1022 C.3     1  UNL1        0.0726
      9 H         142.8787  139.5999  164.3940 H       1  UNL1        0.1233
     10 CL        140.5294  143.9646  169.8782 Cl      1  UNL1       -0.0814
     11 C         140.4775  142.7947  168.9411 C.ar    1  UNL1        0.0682
     12 C         140.3561  143.0222  167.4634 C.ar    1  UNL1        0.0119
     13 C         140.3042  141.8521  166.5262 C.ar    1  UNL1       -0.0033
     14 C         140.3735  140.4546  167.0667 C.ar    1  UNL1       -0.0206
     15 C         140.4948  140.2271  168.5443 C.ar    1  UNL1        0.0080
     16 C         140.5468  141.3971  169.4815 C.ar    1  UNL1        0.0679
     17 CL        140.6681  141.1696  170.9592 Cl      1  UNL1       -0.0814
@<TRIPOS>BOND
     1    10    11    1
     2    11    12   ar
     3    12    13   ar
     4    13    14   ar
     5     1    14    1
     6     1     2    1
     7     2     3    1
     8     3     4    1
     9     5     4    1
    10     5     6    1
    11     6     7    1
    12     7     8    1
    13    14    15   ar
    14    15    16   ar
    15    16    17    1
    16    16    11   ar
    17     5     1    1
    18     8     1    1
    19     7     9    1
@<TRIPOS>MOLECULE
*****
 17 19 0 0 0
SMALL
GASTEIGER

@<TRIPOS>ATOM
      1 C         139.4585  142.4294  165.5299 C.3     1  UNL1        0.0347
      2 C         139.7400  143.8474  165.9301 C.3     1  UNL1        0.0054
      3 C         138.7905  144.7368  165.1837 C.3     1  UNL1        0.0004
      4 C         137.9221  143.8686  164.3222 C.3     1  UNL1        0.0017
      5 C         138.3350  142.4425  164.5362 C.3     1  UNL1        0.0208
      6 C         138.0535  141.0246  164.1360 C.3     1  UNL1        0.0689
      7 N         139.0030  140.1350  164.8825 N.3     1  UNL1       -0.2972
      8 C         139.8714  141.0033  165.7440 C.3     1  UNL1        0.0726
      9 H         139.5806  139.6141  164.2226 H       1  UNL1        0.1233
     10 CL        143.9527  142.3765  169.5048 Cl      1  UNL1       -0.0814
     11 C         142.8292  142.3898  168.5111 C.ar    1  UNL1        0.0682
     12 C         143.1222  142.2589  167.0459 C.ar    1  UNL1        0.0119
     13 C         141.9987  142.2721  166.0522 C.ar    1  UNL1       -0.0033
     14 C         140.5820  142.4162  166.5237 C.ar    1  UNL1       -0.0206
     15 C         140.2890  142.5470  167.9890 C.ar    1  UNL1        0.0080
     16 C         141.4125  142.5338  168.9826 C.ar    1  UNL1        0.0679
     17 CL        141.1194  142.6646  170.4479 Cl      1  UNL1       -0.0814
@<TRIPOS>BOND
     1    10    11    1
     2    11    12   ar
     3    12    13   ar
     4    13    14   ar
     5     1    14    1
     6     1     2    1
     7     2     3    1
     8     3     4    1
     9     5     4    1
    10     5     6    1
    11     6     7    1
    12     7     8    1
    13    14    15   ar
    14    15    16   ar
    15    16    17    1
    16    16    11   ar
    17     5     1    1
    18     8     1    1
    19     7     9    1
@<TRIPOS>MOLECULE
*****
 17 19 0 0 0
SMALL
GASTEIGER

@<TRIPOS>ATOM
      1 C         141.5196  140.4613  168.7331 C.3     1  UNL1        0.0347
      2 C         140.6131  140.0740  167.6025 C.3     1  UNL1        0.0054
      3 C         139.2164  139.9769  168.1408 C.3     1  UNL1        0.0004
      4 C         139.2597  140.3042  169.6040 C.3     1  UNL1        0.0017
      5 C         140.6832  140.6036  169.9701 C.3     1  UNL1        0.0208
      6 C         141.5897  140.9908  171.1007 C.3     1  UNL1        0.0689
      7 N         142.9865  141.0880  170.5624 N.3     1  UNL1       -0.2972
      8 C         142.9431  140.7607  169.0992 C.3     1  UNL1        0.0726
      9 H         143.5913  140.4252  171.0476 H       1  UNL1        0.1233
     10 CL        144.8656  139.8922  163.7854 Cl      1  UNL1       -0.0814
     11 C         144.0292  140.0345  165.0222 C.ar    1  UNL1        0.0682
     12 C         143.6833  138.8236  165.8372 C.ar    1  UNL1        0.0119
     13 C         142.8468  138.9659  167.0741 C.ar    1  UNL1       -0.0033
     14 C         142.3561  140.3191  167.4961 C.ar    1  UNL1       -0.0206
     15 C         142.7020  141.5300  166.6812 C.ar    1  UNL1        0.0080
     16 C         143.5385  141.3877  165.4443 C.ar    1  UNL1        0.0679
     17 CL        143.8843  142.5986  164.6294 Cl      1  UNL1       -0.0814
@<TRIPOS>BOND
     1    10    11    1
     2    11    12   ar
     3    12    13   ar
     4    13    14   ar
     5     1    14    1
     6     1     2    1
     7     2     3    1
     8     3     4    1
     9     5     4    1
    10     5     6    1
    11     6     7    1
    12     7     8    1
    13    14    15   ar
    14    15    16   ar
    15    16    17    1
    16    16    11   ar
    17     5     1    1
    18     8     1    1
    19     7     9    1
@<TRIPOS>MOLECULE
*****
 17 19 0 0 0
SMALL
GASTEIGER

@<TRIPOS>ATOM
      1 C         140.2313  141.9376  168.6866 C.3     1  UNL1        0.0347
      2 C         140.8022  143.3219  168.7748 C.3     1  UNL1        0.0054
      3 C         140.4315  143.8918  170.1119 C.3     1  UNL1        0.0004
      4 C         139.6316  142.8597  170.8500 C.3     1  UNL1        0.0017
      5 C         139.5078  141.6519  169.9691 C.3     1  UNL1        0.0208
      6 C         138.9370  140.2676  169.8809 C.3     1  UNL1        0.0689
      7 N         139.3076  139.6977  168.5438 N.3     1  UNL1       -0.2972
      8 C         140.1076  140.7299  167.8057 C.3     1  UNL1        0.0726
      9 H         138.4635  139.4725  168.0174 H       1  UNL1        0.1233
     10 CL        143.1253  143.0799  163.5563 Cl      1  UNL1       -0.0814
     11 C         142.4019  142.7944  164.8388 C.ar    1  UNL1        0.0682
     12 C         143.0807  142.0141  165.9252 C.ar    1  UNL1        0.0119
     13 C         142.3572  141.7285  167.2078 C.ar    1  UNL1       -0.0033
     14 C         140.9548  142.2233  167.4039 C.ar    1  UNL1       -0.0206
     15 C         140.2759  143.0035  166.3175 C.ar    1  UNL1        0.0080
     16 C         140.9994  143.2891  165.0351 C.ar    1  UNL1        0.0679
     17 CL        140.3205  144.0694  163.9487 Cl      1  UNL1       -0.0814
@<TRIPOS>BOND
     1    10    11    1
     2    11    12   ar
     3    12    13   ar
     4    13    14   ar
     5     1    14    1
     6     1     2    1
     7     2     3    1
     8     3     4    1
     9     5     4    1
    10     5     6    1
    11     6     7    1
    12     7     8    1
    13    14    15   ar
    14    15    16   ar
    15    16    17    1
    16    16    11   ar
    17     5     1    1
    18     8     1    1
    19     7     9    1
@<TRIPOS>MOLECULE
*****
 17 19 0 0 0
SMALL
GASTEIGER

@<TRIPOS>ATOM
      1 C         143.4923  141.3156  165.7245 C.3     1  UNL1        0.0347
      2 C         143.7436  142.7937  165.7706 C.3     1  UNL1        0.0054
      3 C         144.7476  143.1265  164.7071 C.3     1  UNL1        0.0004
      4 C         145.1168  141.8542  164.0036 C.3     1  UNL1        0.0017
      5 C         144.3409  140.7349  164.6324 C.3     1  UNL1        0.0208
      6 C         144.0896  139.2569  164.5863 C.3     1  UNL1        0.0689
      7 N         143.0856  138.9240  165.6499 N.3     1  UNL1       -0.2972
      8 C         142.7164  140.1964  166.3533 C.3     1  UNL1        0.0726
      9 H         143.4914  138.2658  166.3152 H       1  UNL1        0.1233
     10 CL        140.0973  143.6379  170.0927 Cl      1  UNL1       -0.0814
     11 C         140.9460  143.0573  169.0007 C.ar    1  UNL1        0.0682
     12 C         140.3469  142.7753  167.6548 C.ar    1  UNL1        0.0119
     13 C         141.1956  142.1947  166.5627 C.ar    1  UNL1       -0.0033
     14 C         142.6435  141.8962  166.8166 C.ar    1  UNL1       -0.0206
     15 C         143.2427  142.1782  168.1625 C.ar    1  UNL1        0.0080
     16 C         142.3940  142.7588  169.2545 C.ar    1  UNL1        0.0679
     17 CL        142.9931  143.0408  170.6004 Cl      1  UNL1       -0.0814
@<TRIPOS>BOND
     1    10    11    1
     2    11    12   ar
     3    12    13   ar
     4    13    14   ar
     5     1    14    1
     6     1     2    1
     7     2     3    1
     8     3     4    1
     9     5     4    1
    10     5     6    1
    11     6     7    1
    12     7     8    1
    13    14    15   ar
    14    15    16   ar
    15    16    17    1
    16    16    11   ar
    17     5     1    1
    18     8     1    1
    19     7     9    1
@<TRIPOS>MOLECULE
*****
 17 19 0 0 0
SMALL
GASTEIGER

@<TRIPOS>ATOM
      1 C         140.3964  139.2539  166.1094 C.3     1  UNL1        0.0347
      2 C         141.8300  139.6515  166.3015 C.3     1  UNL1        0.0054
      3 C         142.6806  138.7309  165.4776 C.3     1  UNL1        0.0004
      4 C         141.7729  137.7645  164.7762 C.3     1  UNL1        0.0017
      5 C         140.3611  138.0877  165.1667 C.3     1  UNL1        0.0208
      6 C         138.9276  137.6901  164.9745 C.3     1  UNL1        0.0689
      7 N         138.0768  138.6107  165.7985 N.3     1  UNL1       -0.2972
      8 C         138.9847  139.5772  166.4999 C.3     1  UNL1        0.0726
      9 H         137.5482  138.0721  166.4847 H       1  UNL1        0.1233
     10 CL        140.5372  143.9190  169.8799 Cl      1  UNL1       -0.0814
     11 C         140.5020  142.7528  168.9374 C.ar    1  UNL1        0.0682
     12 C         140.4049  142.9861  167.4588 C.ar    1  UNL1        0.0119
     13 C         140.3698  141.8198  166.5162 C.ar    1  UNL1       -0.0033
     14 C         140.4316  140.4202  167.0521 C.ar    1  UNL1       -0.0206
     15 C         140.5287  140.1869  168.5307 C.ar    1  UNL1        0.0080
     16 C         140.5639  141.3531  169.4732 C.ar    1  UNL1        0.0679
     17 CL        140.6609  141.1197  170.9518 Cl      1  UNL1       -0.0814
@<TRIPOS>BOND
     1    10    11    1
     2    11    12   ar
     3    12    13   ar
     4    13    14   ar
     5     1    14    1
     6     1     2    1
     7     2     3    1
     8     3     4    1
     9     5     4    1
    10     5     6    1
    11     6     7    1
    12     7     8    1
    13    14    15   ar
    14    15    16   ar
    15    16    17    1
    16    16    11   ar
    17     5     1    1
    18     8     1    1
    19     7     9    1
@<TRIPOS>MOLECULE
*****
 17 19 0 0 0
SMALL
GASTEIGER

@<TRIPOS>ATOM
      1 C         141.4461  141.1275  168.7964 C.3     1  UNL1        0.0347
      2 C         140.4073  142.0195  168.1837 C.3     1  UNL1        0.0054
      3 C         140.4462  143.3365  168.9006 C.3     1  UNL1        0.0004
      4 C         141.5089  143.2586  169.9563 C.3     1  UNL1        0.0017
      5 C         142.1269  141.8933  169.8919 C.3     1  UNL1        0.0208
      6 C         143.1657  141.0014  170.5046 C.3     1  UNL1        0.0689
      7 N         143.1269  139.6843  169.7878 N.3     1  UNL1       -0.2972
      8 C         142.0641  139.7623  168.7321 C.3     1  UNL1        0.0726
      9 H         142.9059  138.9378  170.4469 H       1  UNL1        0.1233
     10 CL        138.7234  138.0642  164.4144 Cl      1  UNL1       -0.0814
     11 C         139.4040  138.8300  165.5099 C.ar    1  UNL1        0.0682
     12 C         140.7627  139.4221  165.2787 C.ar    1  UNL1        0.0119
     13 C         141.4434  140.1879  166.3742 C.ar    1  UNL1       -0.0033
     14 C         140.7654  140.3617  167.7009 C.ar    1  UNL1       -0.0206
     15 C         139.4067  139.7696  167.9321 C.ar    1  UNL1        0.0080
     16 C         138.7260  139.0038  166.8366 C.ar    1  UNL1        0.0679
     17 CL        137.3674  138.4117  167.0678 Cl      1  UNL1       -0.0814
@<TRIPOS>BOND
     1    10    11    1
     2    11    12   ar
     3    12    13   ar
     4    13    14   ar
     5     1    14    1
     6     1     2    1
     7     2     3    1
     8     3     4    1
     9     5     4    1
    10     5     6    1
    11     6     7    1
    12     7     8    1
    13    14    15   ar
    14    15    16   ar
    15    16    17    1
    16    16    11   ar
    17     5     1    1
    18     8     1    1
    19     7     9    1
