@<TRIPOS>MOLECULE
*****
 28 29 0 0 0
SMALL
GASTEIGER

@<TRIPOS>ATOM
      1 C         141.5928  143.7934  162.2885 C.ar    1  UNL1        0.1255
      2 C         141.4887  144.3588  163.6739 C.ar    1  UNL1        0.0233
      3 C         141.4467  143.4391  164.8581 C.ar    1  UNL1        0.0383
      4 C         141.5088  141.9540  164.6569 C.ar    1  UNL1        0.1386
      5 C         141.6129  141.3886  163.2715 C.ar    1  UNL1        0.0383
      6 C         141.6550  142.3083  162.0873 C.ar    1  UNL1        0.0233
      7 S         141.6348  144.7132  161.1042 S.O2    1  UNL1        0.0768
      8 O         140.4749  145.4838  161.6616 O.2     1  UNL1       -0.1498
      9 O         142.7948  143.9425  160.5469 O.2     1  UNL1       -0.1498
     10 N         140.9208  146.2305  157.5073 N.am    1  UNL1       -0.2894
     11 C         140.8788  145.3108  158.6916 C.2     1  UNL1        0.3194
     12 O         140.0386  144.0689  158.6472 O.2     1  UNL1       -0.2512
     13 N         141.6769  145.6329  159.9200 N.am    1  UNL1       -0.1693
     14 H         141.4722  147.0455  157.5364 H       1  UNL1        0.1509
     15 H         142.2283  146.4479  159.9491 H       1  UNL1        0.1781
     16 C         140.5513  144.7877  155.3785 C.3     1  UNL1        0.0213
     17 C         140.1226  145.9083  156.2788 C.3     1  UNL1        0.0732
     18 C         138.8959  146.7067  155.9507 C.3     1  UNL1        0.0213
     19 O         141.4668  141.0343  165.8411 O.3     1  UNL1       -0.4754
     20 C         140.6119  139.8024  165.8040 C.3     1  UNL1        0.2068
     21 C         139.1827  139.8673  166.2549 C.3     1  UNL1        0.0646
     22 C         138.0752  139.8403  165.2435 C.3     1  UNL1        0.0759
     23 N         138.0242  140.8757  164.1593 N.3     1  UNL1       -0.2726
     24 C         138.0804  140.4577  162.7199 C.3     1  UNL1        0.0721
     25 C         138.0294  141.4931  161.6357 C.3     1  UNL1        0.0174
     26 C         137.9222  142.9464  161.9910 C.3     1  UNL1        0.0029
     27 C         137.8661  143.3644  163.4306 C.3     1  UNL1        0.0174
     28 C         137.9171  142.3291  164.5147 C.3     1  UNL1        0.0721
@<TRIPOS>BOND
     1    16    17    1
     2    17    18    1
     3    17    10    1
     4    10    11   am
     5    11    12    2
     6    11    13   am
     7    13     7    1
     8     7     8    2
     9     7     9    2
    10     7     1    1
    11     1     2   ar
    12     2     3   ar
    13     3     4   ar
    14     4    19    1
    15    19    20    1
    16    20    21    1
    17    21    22    1
    18    22    23    1
    19    23    24    1
    20    24    25    1
    21    25    26    1
    22    26    27    1
    23    27    28    1
    24     4     5   ar
    25     5     6   ar
    26     6     1   ar
    27    28    23    1
    28    10    14    1
    29    13    15    1
@<TRIPOS>MOLECULE
*****
 28 29 0 0 0
SMALL
GASTEIGER

@<TRIPOS>ATOM
      1 C         141.3788  140.6667  168.6052 C.ar    1  UNL1        0.1255
      2 C         141.6378  141.9920  167.9523 C.ar    1  UNL1        0.0233
      3 C         140.7728  142.4498  166.8155 C.ar    1  UNL1        0.0383
      4 C         139.6489  141.5823  166.3317 C.ar    1  UNL1        0.1386
      5 C         139.3900  140.2570  166.9846 C.ar    1  UNL1        0.0383
      6 C         140.2549  139.7992  168.1214 C.ar    1  UNL1        0.0233
      7 S         142.2438  140.2089  169.7420 S.O2    1  UNL1        0.0768
      8 O         141.1574  139.2787  170.1940 O.2     1  UNL1       -0.1498
      9 O         143.3302  141.1392  169.2900 O.2     1  UNL1       -0.1498
     10 N         144.6459  137.9538  171.9543 N.am    1  UNL1       -0.2894
     11 C         143.7810  138.4116  170.8175 C.2     1  UNL1        0.3194
     12 O         143.5883  137.5298  169.6194 O.2     1  UNL1       -0.2512
     13 N         143.1088  139.7511  170.8788 N.am    1  UNL1       -0.1693
     14 H         144.7725  138.5325  172.7406 H       1  UNL1        0.1509
     15 H         143.2353  140.3298  171.6651 H       1  UNL1        0.1781
     16 C         146.8115  136.5290  171.7798 C.3     1  UNL1        0.0213
     17 C         145.3182  136.6142  171.8930 C.3     1  UNL1        0.0732
     18 C         144.4971  135.3600  171.9448 C.3     1  UNL1        0.0213
     19 O         138.7839  142.0401  165.1949 O.3     1  UNL1       -0.4754
     20 C         139.3665  142.8886  164.1037 C.3     1  UNL1        0.2068
     21 C         140.0386  142.2421  162.9288 C.3     1  UNL1        0.0646
     22 C         141.2979  141.4515  163.1268 C.3     1  UNL1        0.0759
     23 N         141.2259  140.0387  163.6257 N.3     1  UNL1       -0.2726
     24 C         140.1473  139.1221  163.1293 C.3     1  UNL1        0.0721
     25 C         140.0753  137.7093  163.6283 C.3     1  UNL1        0.0174
     26 C         141.0818  137.2133  164.6237 C.3     1  UNL1        0.0029
     27 C         142.1604  138.1299  165.1201 C.3     1  UNL1        0.0174
     28 C         142.2324  139.5427  164.6211 C.3     1  UNL1        0.0721
@<TRIPOS>BOND
     1    16    17    1
     2    17    18    1
     3    17    10    1
     4    10    11   am
     5    11    12    2
     6    11    13   am
     7    13     7    1
     8     7     8    2
     9     7     9    2
    10     7     1    1
    11     1     2   ar
    12     2     3   ar
    13     3     4   ar
    14     4    19    1
    15    19    20    1
    16    20    21    1
    17    21    22    1
    18    22    23    1
    19    23    24    1
    20    24    25    1
    21    25    26    1
    22    26    27    1
    23    27    28    1
    24     4     5   ar
    25     5     6   ar
    26     6     1   ar
    27    28    23    1
    28    10    14    1
    29    13    15    1
@<TRIPOS>MOLECULE
*****
 28 29 0 0 0
SMALL
GASTEIGER

@<TRIPOS>ATOM
      1 C         140.9152  143.4504  163.1353 C.ar    1  UNL1        0.1255
      2 C         140.8597  141.9578  162.9984 C.ar    1  UNL1        0.0233
      3 C         140.3034  141.1225  164.1133 C.ar    1  UNL1        0.0383
      4 C         139.8027  141.7800  165.3651 C.ar    1  UNL1        0.1386
      5 C         139.8582  143.2727  165.5020 C.ar    1  UNL1        0.0383
      6 C         140.4145  144.1079  164.3871 C.ar    1  UNL1        0.0233
      7 S         141.4715  144.2857  162.0204 S.O2    1  UNL1        0.0768
      8 O         142.3901  143.1632  161.6379 O.2     1  UNL1       -0.1498
      9 O         140.5530  145.4081  162.4030 O.2     1  UNL1       -0.1498
     10 N         141.9973  145.8561  158.4139 N.am    1  UNL1       -0.2894
     11 C         141.4410  145.0208  159.5288 C.2     1  UNL1        0.3194
     12 O         140.2979  144.0855  159.2668 O.2     1  UNL1       -0.2512
     13 N         142.0278  145.1209  160.9056 N.am    1  UNL1       -0.1693
     14 H         142.7476  146.4699  158.5858 H       1  UNL1        0.1509
     15 H         142.7781  145.7347  161.0775 H       1  UNL1        0.1781
     16 C         142.1267  144.9809  155.9710 C.3     1  UNL1        0.0213
     17 C         141.4105  145.7560  157.0370 C.3     1  UNL1        0.0732
     18 C         140.1075  146.4309  156.7262 C.3     1  UNL1        0.0213
     19 O         139.2464  140.9448  166.4800 O.3     1  UNL1       -0.4754
     20 C         140.0923  139.8806  167.1139 C.3     1  UNL1        0.2068
     21 C         141.4824  140.2036  167.5757 C.3     1  UNL1        0.0646
     22 C         142.6640  139.7626  166.7636 C.3     1  UNL1        0.0759
     23 N         143.3680  140.7413  165.8712 N.3     1  UNL1       -0.2726
     24 C         143.3471  142.2048  166.1992 C.3     1  UNL1        0.0721
     25 C         144.0511  143.1836  165.3068 C.3     1  UNL1        0.0174
     26 C         144.7760  142.6989  164.0864 C.3     1  UNL1        0.0029
     27 C         144.7970  141.2353  163.7583 C.3     1  UNL1        0.0174
     28 C         144.0929  140.2565  164.6507 C.3     1  UNL1        0.0721
@<TRIPOS>BOND
     1    16    17    1
     2    17    18    1
     3    17    10    1
     4    10    11   am
     5    11    12    2
     6    11    13   am
     7    13     7    1
     8     7     8    2
     9     7     9    2
    10     7     1    1
    11     1     2   ar
    12     2     3   ar
    13     3     4   ar
    14     4    19    1
    15    19    20    1
    16    20    21    1
    17    21    22    1
    18    22    23    1
    19    23    24    1
    20    24    25    1
    21    25    26    1
    22    26    27    1
    23    27    28    1
    24     4     5   ar
    25     5     6   ar
    26     6     1   ar
    27    28    23    1
    28    10    14    1
    29    13    15    1
@<TRIPOS>MOLECULE
*****
 28 29 0 0 0
SMALL
GASTEIGER

@<TRIPOS>ATOM
      1 C         139.9978  139.1663  164.8214 C.ar    1  UNL1        0.1255
      2 C         138.8745  138.2754  164.3804 C.ar    1  UNL1        0.0233
      3 C         138.7062  137.9443  162.9271 C.ar    1  UNL1        0.0383
      4 C         139.6611  138.5040  161.9148 C.ar    1  UNL1        0.1386
      5 C         140.7844  139.3948  162.3559 C.ar    1  UNL1        0.0383
      6 C         140.9527  139.7260  163.8091 C.ar    1  UNL1        0.0233
      7 S         140.1661  139.4975  166.2747 S.O2    1  UNL1        0.0768
      8 O         141.6290  139.1806  166.1774 O.2     1  UNL1       -0.1498
      9 O         138.7031  139.8144  166.3719 O.2     1  UNL1       -0.1498
     10 N         140.9536  141.5306  169.5907 N.am    1  UNL1       -0.2894
     11 C         140.7852  141.1994  168.1375 C.2     1  UNL1        0.3194
     12 O         141.0678  142.2390  167.0937 O.2     1  UNL1       -0.2512
     13 N         140.3344  139.8287  167.7279 N.am    1  UNL1       -0.1693
     14 H         140.7681  140.8483  170.2758 H       1  UNL1        0.1509
     15 H         140.1489  139.1463  168.4130 H       1  UNL1        0.1781
     16 C         142.8212  143.1249  170.4394 C.3     1  UNL1        0.0213
     17 C         141.4044  142.9014  170.0002 C.3     1  UNL1        0.0732
     18 C         140.4386  144.0486  169.9706 C.3     1  UNL1        0.0213
     19 O         139.4928  138.1728  160.4616 O.3     1  UNL1       -0.4754
     20 C         138.9713  139.2098  159.5116 C.3     1  UNL1        0.2068
     21 C         138.0355  140.2741  160.0029 C.3     1  UNL1        0.0646
     22 C         138.5454  141.6616  160.2580 C.3     1  UNL1        0.0759
     23 N         138.3543  142.2952  161.6041 N.3     1  UNL1       -0.2726
     24 C         138.8168  143.7019  161.8433 C.3     1  UNL1        0.0721
     25 C         138.6257  144.3355  163.1895 C.3     1  UNL1        0.0174
     26 C         137.9723  143.5624  164.2964 C.3     1  UNL1        0.0029
     27 C         137.5099  142.1556  164.0572 C.3     1  UNL1        0.0174
     28 C         137.7009  141.5220  162.7110 C.3     1  UNL1        0.0721
@<TRIPOS>BOND
     1    16    17    1
     2    17    18    1
     3    17    10    1
     4    10    11   am
     5    11    12    2
     6    11    13   am
     7    13     7    1
     8     7     8    2
     9     7     9    2
    10     7     1    1
    11     1     2   ar
    12     2     3   ar
    13     3     4   ar
    14     4    19    1
    15    19    20    1
    16    20    21    1
    17    21    22    1
    18    22    23    1
    19    23    24    1
    20    24    25    1
    21    25    26    1
    22    26    27    1
    23    27    28    1
    24     4     5   ar
    25     5     6   ar
    26     6     1   ar
    27    28    23    1
    28    10    14    1
    29    13    15    1
@<TRIPOS>MOLECULE
*****
 28 29 0 0 0
SMALL
GASTEIGER

@<TRIPOS>ATOM
      1 C         141.8411  143.7225  164.5403 C.ar    1  UNL1        0.1255
      2 C         140.7420  143.1664  165.3963 C.ar    1  UNL1        0.0233
      3 C         141.0718  142.2606  166.5456 C.ar    1  UNL1        0.0383
      4 C         142.5006  141.9110  166.8389 C.ar    1  UNL1        0.1386
      5 C         143.5997  142.4670  165.9829 C.ar    1  UNL1        0.0383
      6 C         143.2700  143.3728  164.8336 C.ar    1  UNL1        0.0233
      7 S         141.5113  144.6283  163.3911 S.O2    1  UNL1        0.0768
      8 O         140.0846  144.1675  163.4373 O.2     1  UNL1       -0.1498
      9 O         142.9381  145.0890  163.3448 O.2     1  UNL1       -0.1498
     10 N         140.9427  145.9292  159.6851 N.am    1  UNL1       -0.2894
     11 C         141.2724  145.0234  160.8344 C.2     1  UNL1        0.3194
     12 O         141.6931  143.6069  160.5761 O.2     1  UNL1       -0.2512
     13 N         141.1816  145.5341  162.2418 N.am    1  UNL1       -0.1693
     14 H         140.6666  146.8588  159.8545 H       1  UNL1        0.1509
     15 H         140.9055  146.4637  162.4112 H       1  UNL1        0.1781
     16 C         142.1852  145.8230  157.4058 C.3     1  UNL1        0.0213
     17 C         141.0335  145.4184  158.2776 C.3     1  UNL1        0.0732
     18 C         139.9728  144.5031  157.7419 C.3     1  UNL1        0.0213
     19 O         142.8304  141.0052  167.9881 O.3     1  UNL1       -0.4754
     20 C         142.5231  139.5397  167.9002 C.3     1  UNL1        0.2068
     21 C         143.3292  138.6574  166.9936 C.3     1  UNL1        0.0646
     22 C         142.7920  138.2762  165.6459 C.3     1  UNL1        0.0759
     23 N         143.0311  139.1677  164.4636 N.3     1  UNL1       -0.2726
     24 C         141.8692  139.7766  163.7362 C.3     1  UNL1        0.0721
     25 C         142.1083  140.6681  162.5538 C.3     1  UNL1        0.0174
     26 C         143.5093  140.9509  162.0989 C.3     1  UNL1        0.0029
     27 C         144.6714  140.3420  162.8263 C.3     1  UNL1        0.0174
     28 C         144.4323  139.4505  164.0087 C.3     1  UNL1        0.0721
@<TRIPOS>BOND
     1    16    17    1
     2    17    18    1
     3    17    10    1
     4    10    11   am
     5    11    12    2
     6    11    13   am
     7    13     7    1
     8     7     8    2
     9     7     9    2
    10     7     1    1
    11     1     2   ar
    12     2     3   ar
    13     3     4   ar
    14     4    19    1
    15    19    20    1
    16    20    21    1
    17    21    22    1
    18    22    23    1
    19    23    24    1
    20    24    25    1
    21    25    26    1
    22    26    27    1
    23    27    28    1
    24     4     5   ar
    25     5     6   ar
    26     6     1   ar
    27    28    23    1
    28    10    14    1
    29    13    15    1
@<TRIPOS>MOLECULE
*****
 28 29 0 0 0
SMALL
GASTEIGER

@<TRIPOS>ATOM
      1 C         139.1802  139.1753  163.5389 C.ar    1  UNL1        0.1255
      2 C         139.8070  140.3932  162.9276 C.ar    1  UNL1        0.0233
      3 C         140.1809  140.3954  161.4750 C.ar    1  UNL1        0.0383
      4 C         139.9280  139.1796  160.6336 C.ar    1  UNL1        0.1386
      5 C         139.3012  137.9617  161.2450 C.ar    1  UNL1        0.0383
      6 C         138.9273  137.9596  162.6976 C.ar    1  UNL1        0.0233
      7 S         138.8063  139.1732  164.9916 S.O2    1  UNL1        0.0768
      8 O         138.0854  140.4757  164.8079 O.2     1  UNL1       -0.1498
      9 O         139.5271  137.8707  165.1752 O.2     1  UNL1       -0.1498
     10 N         138.9513  139.8338  168.9021 N.am    1  UNL1       -0.2894
     11 C         139.3253  139.8359  167.4495 C.2     1  UNL1        0.3194
     12 O         140.5922  140.5029  167.0021 O.2     1  UNL1       -0.2512
     13 N         138.4323  139.1711  166.4442 N.am    1  UNL1       -0.1693
     14 H         138.1199  139.3960  169.1958 H       1  UNL1        0.1509
     15 H         137.6008  138.7333  166.7379 H       1  UNL1        0.1781
     16 C         139.6525  141.9493  170.2375 C.3     1  UNL1        0.0213
     17 C         139.8444  140.4987  169.9074 C.3     1  UNL1        0.0732
     18 C         140.9292  139.7130  170.5826 C.3     1  UNL1        0.0213
     19 O         140.3019  139.1817  159.1810 O.3     1  UNL1       -0.4754
     20 C         141.6920  138.8029  158.7638 C.3     1  UNL1        0.2068
     21 C         142.6026  138.1080  159.7323 C.3     1  UNL1        0.0646
     22 C         143.7287  138.8616  160.3758 C.3     1  UNL1        0.0759
     23 N         143.6946  139.1486  161.8477 N.3     1  UNL1       -0.2726
     24 C         142.9037  138.2647  162.7660 C.3     1  UNL1        0.0721
     25 C         142.8696  138.5517  164.2379 C.3     1  UNL1        0.0174
     26 C         143.6263  139.7226  164.7915 C.3     1  UNL1        0.0029
     27 C         144.4172  140.6065  163.8731 C.3     1  UNL1        0.0174
     28 C         144.4514  140.3195  162.4012 C.3     1  UNL1        0.0721
@<TRIPOS>BOND
     1    16    17    1
     2    17    18    1
     3    17    10    1
     4    10    11   am
     5    11    12    2
     6    11    13   am
     7    13     7    1
     8     7     8    2
     9     7     9    2
    10     7     1    1
    11     1     2   ar
    12     2     3   ar
    13     3     4   ar
    14     4    19    1
    15    19    20    1
    16    20    21    1
    17    21    22    1
    18    22    23    1
    19    23    24    1
    20    24    25    1
    21    25    26    1
    22    26    27    1
    23    27    28    1
    24     4     5   ar
    25     5     6   ar
    26     6     1   ar
    27    28    23    1
    28    10    14    1
    29    13    15    1
@<TRIPOS>MOLECULE
*****
 28 29 0 0 0
SMALL
GASTEIGER

@<TRIPOS>ATOM
      1 C         138.3995  139.3218  163.2273 C.ar    1  UNL1        0.1255
      2 C         138.8054  138.0421  163.8964 C.ar    1  UNL1        0.0233
      3 C         138.9182  137.9802  165.3909 C.ar    1  UNL1        0.0383
      4 C         138.6251  139.1979  166.2162 C.ar    1  UNL1        0.1386
      5 C         138.2192  140.4776  165.5471 C.ar    1  UNL1        0.0383
      6 C         138.1064  140.5395  164.0526 C.ar    1  UNL1        0.0233
      7 S         138.2867  139.3837  161.7328 S.O2    1  UNL1        0.0768
      8 O         138.8944  140.7550  161.7437 O.2     1  UNL1       -0.1498
      9 O         137.6789  138.0123  161.7219 O.2     1  UNL1       -0.1498
     10 N         139.1965  139.0339  157.8858 N.am    1  UNL1       -0.2894
     11 C         139.3093  138.9720  159.3802 C.2     1  UNL1        0.3194
     12 O         140.5577  138.4365  160.0166 O.2     1  UNL1       -0.2512
     13 N         138.1739  139.4456  160.2383 N.am    1  UNL1       -0.1693
     14 H         138.3772  139.3854  157.4681 H       1  UNL1        0.1509
     15 H         137.3546  139.7971  159.8207 H       1  UNL1        0.1781
     16 C         140.3018  137.1816  156.4375 C.3     1  UNL1        0.0213
     17 C         140.3321  138.5603  157.0277 C.3     1  UNL1        0.0732
     18 C         141.4978  139.4653  156.7597 C.3     1  UNL1        0.0213
     19 O         138.7379  139.1360  167.7107 O.3     1  UNL1       -0.4754
     20 C         139.5516  140.1604  168.4445 C.3     1  UNL1        0.2068
     21 C         140.9865  139.8792  168.7791 C.3     1  UNL1        0.0646
     22 C         142.0807  140.4390  167.9193 C.3     1  UNL1        0.0759
     23 N         142.1124  140.1320  166.4514 N.3     1  UNL1       -0.2726
     24 C         142.4874  138.7582  165.9804 C.3     1  UNL1        0.0721
     25 C         142.5191  138.4512  164.5125 C.3     1  UNL1        0.0174
     26 C         142.1758  139.5181  163.5156 C.3     1  UNL1        0.0029
     27 C         141.8008  140.8920  163.9865 C.3     1  UNL1        0.0174
     28 C         141.7691  141.1990  165.4544 C.3     1  UNL1        0.0721
@<TRIPOS>BOND
     1    16    17    1
     2    17    18    1
     3    17    10    1
     4    10    11   am
     5    11    12    2
     6    11    13   am
     7    13     7    1
     8     7     8    2
     9     7     9    2
    10     7     1    1
    11     1     2   ar
    12     2     3   ar
    13     3     4   ar
    14     4    19    1
    15    19    20    1
    16    20    21    1
    17    21    22    1
    18    22    23    1
    19    23    24    1
    20    24    25    1
    21    25    26    1
    22    26    27    1
    23    27    28    1
    24     4     5   ar
    25     5     6   ar
    26     6     1   ar
    27    28    23    1
    28    10    14    1
    29    13    15    1
@<TRIPOS>MOLECULE
*****
 28 29 0 0 0
SMALL
GASTEIGER

@<TRIPOS>ATOM
      1 C         139.3109  142.0341  162.3077 C.ar    1  UNL1        0.1255
      2 C         138.0591  142.1368  163.1277 C.ar    1  UNL1        0.0233
      3 C         138.0831  141.7704  164.5821 C.ar    1  UNL1        0.0383
      4 C         139.3588  141.3014  165.2164 C.ar    1  UNL1        0.1386
      5 C         140.6106  141.1987  164.3963 C.ar    1  UNL1        0.0383
      6 C         140.5866  141.5651  162.9420 C.ar    1  UNL1        0.0233
      7 S         139.2869  142.4005  160.8533 S.O2    1  UNL1        0.0768
      8 O         137.9988  143.1406  161.0610 O.2     1  UNL1       -0.1498
      9 O         140.5750  141.6604  160.6456 O.2     1  UNL1       -0.1498
     10 N         139.8371  144.4308  157.4880 N.am    1  UNL1       -0.2894
     11 C         139.8611  144.0645  158.9424 C.2     1  UNL1        0.3194
     12 O         140.4833  144.9957  159.9403 O.2     1  UNL1       -0.2512
     13 N         139.2629  142.7669  159.3989 N.am    1  UNL1       -0.1693
     14 H         139.4287  143.8197  156.8331 H       1  UNL1        0.1509
     15 H         138.8546  142.1557  158.7440 H       1  UNL1        0.1781
     16 C         141.9253  145.8778  156.9440 C.3     1  UNL1        0.0213
     17 C         140.4353  145.7285  157.0315 C.3     1  UNL1        0.0732
     18 C         139.5435  146.8768  156.6626 C.3     1  UNL1        0.0213
     19 O         139.3828  140.9350  166.6708 O.3     1  UNL1       -0.4754
     20 C         139.1036  139.5231  167.0932 C.3     1  UNL1        0.2068
     21 C         138.0933  138.7029  166.3472 C.3     1  UNL1        0.0646
     22 C         138.5328  137.4995  165.5669 C.3     1  UNL1        0.0759
     23 N         139.3302  137.6720  164.3082 N.3     1  UNL1       -0.2726
     24 C         140.8129  137.4452  164.3226 C.3     1  UNL1        0.0721
     25 C         141.6103  137.6177  163.0639 C.3     1  UNL1        0.0174
     26 C         140.9250  138.0171  161.7908 C.3     1  UNL1        0.0029
     27 C         139.4423  138.2439  161.7763 C.3     1  UNL1        0.0174
     28 C         138.6449  138.0714  163.0350 C.3     1  UNL1        0.0721
@<TRIPOS>BOND
     1    16    17    1
     2    17    18    1
     3    17    10    1
     4    10    11   am
     5    11    12    2
     6    11    13   am
     7    13     7    1
     8     7     8    2
     9     7     9    2
    10     7     1    1
    11     1     2   ar
    12     2     3   ar
    13     3     4   ar
    14     4    19    1
    15    19    20    1
    16    20    21    1
    17    21    22    1
    18    22    23    1
    19    23    24    1
    20    24    25    1
    21    25    26    1
    22    26    27    1
    23    27    28    1
    24     4     5   ar
    25     5     6   ar
    26     6     1   ar
    27    28    23    1
    28    10    14    1
    29    13    15    1
@<TRIPOS>MOLECULE
*****
 28 29 0 0 0
SMALL
GASTEIGER

@<TRIPOS>ATOM
      1 C         139.0428  141.8447  162.1766 C.ar    1  UNL1        0.1255
      2 C         137.8470  141.9583  163.0749 C.ar    1  UNL1        0.0233
      3 C         137.9799  141.6690  164.5407 C.ar    1  UNL1        0.0383
      4 C         139.3087  141.2662  165.1082 C.ar    1  UNL1        0.1386
      5 C         140.5045  141.1526  164.2099 C.ar    1  UNL1        0.0383
      6 C         140.3716  141.4419  162.7440 C.ar    1  UNL1        0.0233
      7 S         138.9099  142.1340  160.7107 S.O2    1  UNL1        0.0768
      8 O         137.6676  142.9301  160.9805 O.2     1  UNL1       -0.1498
      9 O         140.1522  141.3379  160.4410 O.2     1  UNL1       -0.1498
     10 N         137.9663  141.7234  156.8779 N.am    1  UNL1       -0.2894
     11 C         138.0992  141.4341  158.3437 C.2     1  UNL1        0.3194
     12 O         137.5544  140.1556  158.9083 O.2     1  UNL1       -0.2512
     13 N         138.7770  142.4232  159.2449 N.am    1  UNL1       -0.1693
     14 H         138.3239  142.5625  156.5073 H       1  UNL1        0.1509
     15 H         139.1345  143.2623  158.8743 H       1  UNL1        0.1781
     16 C         135.7962  140.7555  155.8272 C.3     1  UNL1        0.0213
     17 C         137.2885  140.7342  155.9766 C.3     1  UNL1        0.0732
     18 C         138.1032  139.7236  155.2249 C.3     1  UNL1        0.0213
     19 O         139.4416  140.9769  166.5740 O.3     1  UNL1       -0.4754
     20 C         139.1137  139.6117  167.1019 C.3     1  UNL1        0.2068
     21 C         138.1150  138.7510  166.3865 C.3     1  UNL1        0.0646
     22 C         138.5696  137.5188  165.6618 C.3     1  UNL1        0.0759
     23 N         139.3425  137.6435  164.3823 N.3     1  UNL1       -0.2726
     24 C         140.8287  137.4410  164.3811 C.3     1  UNL1        0.0721
     25 C         141.6016  137.5656  163.1016 C.3     1  UNL1        0.0174
     26 C         140.8882  137.8928  161.8233 C.3     1  UNL1        0.0029
     27 C         139.4019  138.0953  161.8245 C.3     1  UNL1        0.0174
     28 C         138.6290  137.9706  163.1040 C.3     1  UNL1        0.0721
@<TRIPOS>BOND
     1    16    17    1
     2    17    18    1
     3    17    10    1
     4    10    11   am
     5    11    12    2
     6    11    13   am
     7    13     7    1
     8     7     8    2
     9     7     9    2
    10     7     1    1
    11     1     2   ar
    12     2     3   ar
    13     3     4   ar
    14     4    19    1
    15    19    20    1
    16    20    21    1
    17    21    22    1
    18    22    23    1
    19    23    24    1
    20    24    25    1
    21    25    26    1
    22    26    27    1
    23    27    28    1
    24     4     5   ar
    25     5     6   ar
    26     6     1   ar
    27    28    23    1
    28    10    14    1
    29    13    15    1
