@<TRIPOS>MOLECULE
*****
 27 29 0 0 0
SMALL
GASTEIGER

@<TRIPOS>ATOM
      1 C         138.8514  137.7156  164.7983 C.3     1  UNL1        0.0518
      2 C         139.2271  139.0563  165.3565 C.ar    1  UNL1        0.0568
      3 N         139.6088  139.1869  166.8012 N.ar    1  UNL1       -0.2456
      4 C         139.9845  140.5275  167.3594 C.ar    1  UNL1        0.1319
      5 C         139.9786  141.7375  166.4729 C.ar    1  UNL1        0.0196
      6 C         139.5970  141.6069  165.0281 C.ar    1  UNL1       -0.0015
      7 C         139.2212  140.2662  164.4700 C.ar    1  UNL1        0.0068
      8 C         140.3927  142.9192  167.2987 C.3     1  UNL1        0.1222
      9 N         140.6545  142.4396  168.6956 N.am    1  UNL1       -0.2681
     10 C         140.4023  140.9615  168.7331 C.2     1  UNL1        0.2668
     11 O         140.5430  140.0732  169.9336 O.2     1  UNL1       -0.2683
     12 C         139.5911  142.8168  164.1415 C.ar    1  UNL1        0.0102
     13 C         138.3168  143.5754  163.9165 C.ar    1  UNL1        0.0017
     14 C         138.3107  144.7854  163.0299 C.ar    1  UNL1        0.0114
     15 C         139.5791  145.2366  162.3684 C.ar    1  UNL1        0.0585
     16 CL        139.5730  146.4466  161.4818 Cl      1  UNL1       -0.0822
     17 C         140.8534  144.4780  162.5934 C.ar    1  UNL1        0.0228
     18 C         140.8594  143.2681  163.4800 C.ar    1  UNL1        0.0585
     19 CL        142.1337  142.5094  163.7050 Cl      1  UNL1       -0.0822
     20 C         138.8396  140.1355  163.0251 C.3     1  UNL1        0.0934
     21 N         137.4087  140.3068  162.6090 N.3     1  UNL1       -0.3174
     22 H         136.8473  139.5517  163.0027 H       1  UNL1        0.1192
     23 H         137.3453  140.2824  161.5912 H       1  UNL1        0.1192
     24 C         141.0918  143.2890  169.8520 C.3     1  UNL1        0.1257
     25 C         142.3044  142.9061  170.6476 C.3     1  UNL1        0.1586
     26 O         142.1590  142.0528  171.8727 O.3     1  UNL1       -0.3802
     27 H         141.6677  142.5421  172.5511 H       1  UNL1        0.2105
@<TRIPOS>BOND
     1     1     2    1
     2     2     3   ar
     3     3     4   ar
     4     4     5   ar
     5     5     6   ar
     6     6    12    1
     7    12    13   ar
     8    13    14   ar
     9    14    15   ar
    10    15    16    1
    11    15    17   ar
    12    17    18   ar
    13    18    19    1
    14     6     7   ar
    15     7    20    1
    16    20    21    1
    17     5     8    1
    18     8     9    1
    19     9    24    1
    20    24    25    1
    21    25    26    1
    22     9    10   am
    23    10    11    2
    24     7     2   ar
    25    10     4    1
    26    18    12   ar
    27    21    22    1
    28    21    23    1
    29    26    27    1
@<TRIPOS>MOLECULE
*****
 27 29 0 0 0
SMALL
GASTEIGER

@<TRIPOS>ATOM
      1 C         137.5957  137.5488  166.5608 C.3     1  UNL1        0.0518
      2 C         138.4016  138.8006  166.7443 C.ar    1  UNL1        0.0568
      3 N         138.7631  139.2643  168.1243 N.ar    1  UNL1       -0.2456
      4 C         139.5689  140.5161  168.3078 C.ar    1  UNL1        0.1319
      5 C         140.0133  141.3042  167.1113 C.ar    1  UNL1        0.0196
      6 C         139.6518  140.8405  165.7314 C.ar    1  UNL1       -0.0015
      7 C         138.8459  139.5887  165.5479 C.ar    1  UNL1        0.0068
      8 C         140.7916  142.4896  167.6001 C.3     1  UNL1        0.1222
      9 N         140.8282  142.4342  169.0986 N.am    1  UNL1       -0.2681
     10 C         140.0726  141.2145  169.5360 C.2     1  UNL1        0.2668
     11 O         139.8582  140.7711  170.9528 O.2     1  UNL1       -0.2683
     12 C         140.0962  141.6285  164.5348 C.ar    1  UNL1        0.0102
     13 C         141.4452  141.3763  163.9295 C.ar    1  UNL1        0.0017
     14 C         141.8896  142.1642  162.7330 C.ar    1  UNL1        0.0114
     15 C         140.9849  143.2044  162.1419 C.ar    1  UNL1        0.0585
     16 CL        141.4294  143.9924  160.9454 Cl      1  UNL1       -0.0822
     17 C         139.6359  143.4567  162.7472 C.ar    1  UNL1        0.0228
     18 C         139.1915  142.6687  163.9437 C.ar    1  UNL1        0.0585
     19 CL        137.8424  142.9209  164.5490 Cl      1  UNL1       -0.0822
     20 C         138.4844  139.1249  164.1679 C.3     1  UNL1        0.0934
     21 N         139.3957  138.1914  163.4276 N.3     1  UNL1       -0.3174
     22 H         140.2753  138.6657  163.2233 H       1  UNL1        0.1192
     23 H         138.9530  137.9053  162.5544 H       1  UNL1        0.1192
     24 C         141.5022  143.4247  170.0013 C.3     1  UNL1        0.1257
     25 C         142.8518  143.1160  170.5785 C.3     1  UNL1        0.1586
     26 O         143.6116  144.1769  171.3184 O.3     1  UNL1       -0.3802
     27 H         143.8562  144.8870  170.7045 H       1  UNL1        0.2105
@<TRIPOS>BOND
     1     1     2    1
     2     2     3   ar
     3     3     4   ar
     4     4     5   ar
     5     5     6   ar
     6     6    12    1
     7    12    13   ar
     8    13    14   ar
     9    14    15   ar
    10    15    16    1
    11    15    17   ar
    12    17    18   ar
    13    18    19    1
    14     6     7   ar
    15     7    20    1
    16    20    21    1
    17     5     8    1
    18     8     9    1
    19     9    24    1
    20    24    25    1
    21    25    26    1
    22     9    10   am
    23    10    11    2
    24     7     2   ar
    25    10     4    1
    26    18    12   ar
    27    21    22    1
    28    21    23    1
    29    26    27    1
@<TRIPOS>MOLECULE
*****
 27 29 0 0 0
SMALL
GASTEIGER

@<TRIPOS>ATOM
      1 C         145.4467  139.8620  164.3489 C.3     1  UNL1        0.0518
      2 C         144.0597  140.4005  164.1579 C.ar    1  UNL1        0.0568
      3 N         143.8306  141.5818  163.2624 N.ar    1  UNL1       -0.2456
      4 C         142.4438  142.1204  163.0713 C.ar    1  UNL1        0.1319
      5 C         141.2859  141.4776  163.7758 C.ar    1  UNL1        0.0196
      6 C         141.5150  140.2963  164.6714 C.ar    1  UNL1       -0.0015
      7 C         142.9020  139.7578  164.8624 C.ar    1  UNL1        0.0068
      8 C         140.0408  142.2233  163.3969 C.3     1  UNL1        0.1222
      9 N         140.4291  143.3269  162.4582 N.am    1  UNL1       -0.2681
     10 C         141.9142  143.2634  162.2570 C.2     1  UNL1        0.2668
     11 O         142.7270  144.1815  161.3931 O.2     1  UNL1       -0.2683
     12 C         140.3572  139.6534  165.3759 C.ar    1  UNL1        0.0102
     13 C         139.9079  140.1739  166.7090 C.ar    1  UNL1        0.0017
     14 C         138.7501  139.5311  167.4136 C.ar    1  UNL1        0.0114
     15 C         138.0418  138.3679  166.7851 C.ar    1  UNL1        0.0585
     16 CL        136.8841  137.7251  167.4897 Cl      1  UNL1       -0.0822
     17 C         138.4912  137.8474  165.4519 C.ar    1  UNL1        0.0228
     18 C         139.6489  138.4902  164.7473 C.ar    1  UNL1        0.0585
     19 CL        140.0983  137.9697  163.4142 Cl      1  UNL1       -0.0822
     20 C         143.1311  138.5764  165.7580 C.3     1  UNL1        0.0934
     21 N         143.3093  138.7774  167.2337 N.3     1  UNL1       -0.3174
     22 H         144.1734  139.2915  167.4049 H       1  UNL1        0.1192
     23 H         143.3560  137.8700  167.6972 H       1  UNL1        0.1192
     24 C         139.4961  144.3199  161.8309 C.3     1  UNL1        0.1257
     25 C         139.6501  145.7829  162.1242 C.3     1  UNL1        0.1586
     26 O         140.8835  146.2835  162.8156 O.3     1  UNL1       -0.3802
     27 H         140.9123  145.9329  163.7195 H       1  UNL1        0.2105
@<TRIPOS>BOND
     1     1     2    1
     2     2     3   ar
     3     3     4   ar
     4     4     5   ar
     5     5     6   ar
     6     6    12    1
     7    12    13   ar
     8    13    14   ar
     9    14    15   ar
    10    15    16    1
    11    15    17   ar
    12    17    18   ar
    13    18    19    1
    14     6     7   ar
    15     7    20    1
    16    20    21    1
    17     5     8    1
    18     8     9    1
    19     9    24    1
    20    24    25    1
    21    25    26    1
    22     9    10   am
    23    10    11    2
    24     7     2   ar
    25    10     4    1
    26    18    12   ar
    27    21    22    1
    28    21    23    1
    29    26    27    1
@<TRIPOS>MOLECULE
*****
 27 29 0 0 0
SMALL
GASTEIGER

@<TRIPOS>ATOM
      1 C         137.3765  137.4513  166.7779 C.3     1  UNL1        0.0518
      2 C         138.4531  138.4903  166.8844 C.ar    1  UNL1        0.0568
      3 N         138.5579  139.3380  168.1174 N.ar    1  UNL1       -0.2456
      4 C         139.6344  140.3771  168.2240 C.ar    1  UNL1        0.1319
      5 C         140.6063  140.5684  167.0975 C.ar    1  UNL1        0.0196
      6 C         140.5015  139.7207  165.8645 C.ar    1  UNL1       -0.0015
      7 C         139.4249  138.6817  165.7579 C.ar    1  UNL1        0.0068
      8 C         141.5552  141.6636  167.4849 C.3     1  UNL1        0.1222
      9 N         141.1699  142.1490  168.8509 N.am    1  UNL1       -0.2681
     10 C         139.9828  141.3540  169.3076 C.2     1  UNL1        0.2668
     11 O         139.2693  141.5087  170.6180 O.2     1  UNL1       -0.2683
     12 C         141.4733  139.9120  164.7379 C.ar    1  UNL1        0.0102
     13 C         141.1630  140.8817  163.6363 C.ar    1  UNL1        0.0017
     14 C         142.1347  141.0730  162.5098 C.ar    1  UNL1        0.0114
     15 C         143.4167  140.2947  162.4848 C.ar    1  UNL1        0.0585
     16 CL        144.3884  140.4860  161.3583 Cl      1  UNL1       -0.0822
     17 C         143.7270  139.3250  163.5864 C.ar    1  UNL1        0.0228
     18 C         142.7553  139.1337  164.7130 C.ar    1  UNL1        0.0585
     19 CL        143.0656  138.1640  165.8146 Cl      1  UNL1       -0.0822
     20 C         139.3201  137.8339  164.5248 C.3     1  UNL1        0.0934
     21 N         138.5626  138.3361  163.3316 N.3     1  UNL1       -0.3174
     22 H         137.5734  138.4183  163.5667 H       1  UNL1        0.1192
     23 H         138.6747  137.6814  162.5574 H       1  UNL1        0.1192
     24 C         141.8519  143.2384  169.6243 C.3     1  UNL1        0.1257
     25 C         142.6746  142.8988  170.8317 C.3     1  UNL1        0.1586
     26 O         142.0490  142.1725  171.9856 O.3     1  UNL1       -0.3802
     27 H         141.3795  142.7393  172.3996 H       1  UNL1        0.2105
@<TRIPOS>BOND
     1     1     2    1
     2     2     3   ar
     3     3     4   ar
     4     4     5   ar
     5     5     6   ar
     6     6    12    1
     7    12    13   ar
     8    13    14   ar
     9    14    15   ar
    10    15    16    1
    11    15    17   ar
    12    17    18   ar
    13    18    19    1
    14     6     7   ar
    15     7    20    1
    16    20    21    1
    17     5     8    1
    18     8     9    1
    19     9    24    1
    20    24    25    1
    21    25    26    1
    22     9    10   am
    23    10    11    2
    24     7     2   ar
    25    10     4    1
    26    18    12   ar
    27    21    22    1
    28    21    23    1
    29    26    27    1
@<TRIPOS>MOLECULE
*****
 27 29 0 0 0
SMALL
GASTEIGER

@<TRIPOS>ATOM
      1 C         138.1164  137.6669  162.2219 C.3     1  UNL1        0.0518
      2 C         138.5924  138.9318  162.8727 C.ar    1  UNL1        0.0568
      3 N         138.3455  140.2548  162.2103 N.ar    1  UNL1       -0.2456
      4 C         138.8215  141.5197  162.8610 C.ar    1  UNL1        0.1319
      5 C         139.5443  141.4617  164.1741 C.ar    1  UNL1        0.0196
      6 C         139.7911  140.1387  164.8365 C.ar    1  UNL1       -0.0015
      7 C         139.3151  138.8738  164.1857 C.ar    1  UNL1        0.0068
      8 C         139.8935  142.8648  164.5734 C.3     1  UNL1        0.1222
      9 N         139.3864  143.7899  163.5072 N.am    1  UNL1       -0.2681
     10 C         138.7239  142.9587  162.4488 C.2     1  UNL1        0.2668
     11 O         138.0774  143.4757  161.1979 O.2     1  UNL1       -0.2683
     12 C         140.5140  140.0806  166.1496 C.ar    1  UNL1        0.0102
     13 C         139.7438  140.1651  167.4340 C.ar    1  UNL1        0.0017
     14 C         140.4665  140.1070  168.7471 C.ar    1  UNL1        0.0114
     15 C         141.9594  139.9644  168.7758 C.ar    1  UNL1        0.0585
     16 CL        142.6821  139.9063  170.0889 Cl      1  UNL1       -0.0822
     17 C         142.7296  139.8799  167.4914 C.ar    1  UNL1        0.0228
     18 C         142.0069  139.9380  166.1782 C.ar    1  UNL1        0.0585
     19 CL        142.7770  139.8534  164.8939 Cl      1  UNL1       -0.0822
     20 C         139.5620  137.5507  164.8481 C.3     1  UNL1        0.0934
     21 N         140.8386  136.8077  164.5867 N.3     1  UNL1       -0.3174
     22 H         140.8691  136.5176  163.6094 H       1  UNL1        0.1192
     23 H         140.8818  135.9844  165.1873 H       1  UNL1        0.1192
     24 C         139.5187  145.2841  163.5004 C.3     1  UNL1        0.1257
     25 C         140.0873  145.9813  162.3001 C.3     1  UNL1        0.1586
     26 O         139.1907  146.3633  161.1598 O.3     1  UNL1       -0.3802
     27 H         138.8487  145.5613  160.7347 H       1  UNL1        0.2105
@<TRIPOS>BOND
     1     1     2    1
     2     2     3   ar
     3     3     4   ar
     4     4     5   ar
     5     5     6   ar
     6     6    12    1
     7    12    13   ar
     8    13    14   ar
     9    14    15   ar
    10    15    16    1
    11    15    17   ar
    12    17    18   ar
    13    18    19    1
    14     6     7   ar
    15     7    20    1
    16    20    21    1
    17     5     8    1
    18     8     9    1
    19     9    24    1
    20    24    25    1
    21    25    26    1
    22     9    10   am
    23    10    11    2
    24     7     2   ar
    25    10     4    1
    26    18    12   ar
    27    21    22    1
    28    21    23    1
    29    26    27    1
@<TRIPOS>MOLECULE
*****
 27 29 0 0 0
SMALL
GASTEIGER

@<TRIPOS>ATOM
      1 C         138.3412  137.5087  163.4181 C.3     1  UNL1        0.0518
      2 C         139.5149  138.2696  163.9601 C.ar    1  UNL1        0.0568
      3 N         140.8325  138.2253  163.2447 N.ar    1  UNL1       -0.2456
      4 C         142.0061  138.9861  163.7866 C.ar    1  UNL1        0.1319
      5 C         141.8621  139.7913  165.0440 C.ar    1  UNL1        0.0196
      6 C         140.5445  139.8356  165.7594 C.ar    1  UNL1       -0.0015
      7 C         139.3709  139.0747  165.2174 C.ar    1  UNL1        0.0068
      8 C         143.1855  140.4336  165.3373 C.3     1  UNL1        0.1222
      9 N         144.1475  140.0254  164.2611 N.am    1  UNL1       -0.2681
     10 C         143.4186  139.1308  163.3028 C.2     1  UNL1        0.2668
     11 O         144.0000  138.4929  162.0760 O.2     1  UNL1       -0.2683
     12 C         140.4004  140.6408  167.0168 C.ar    1  UNL1        0.0102
     13 C         140.3660  139.9517  168.3487 C.ar    1  UNL1        0.0017
     14 C         140.2220  140.7568  169.6062 C.ar    1  UNL1        0.0114
     15 C         140.1123  142.2509  169.5316 C.ar    1  UNL1        0.0585
     16 CL        139.9682  143.0559  170.7890 Cl      1  UNL1       -0.0822
     17 C         140.1467  142.9399  168.1997 C.ar    1  UNL1        0.0228
     18 C         140.2907  142.1349  166.9422 C.ar    1  UNL1        0.0585
     19 CL        140.3251  142.8239  165.6103 Cl      1  UNL1       -0.0822
     20 C         138.0532  139.1190  165.9329 C.3     1  UNL1        0.0934
     21 N         137.7372  138.0992  166.9865 N.3     1  UNL1       -0.3174
     22 H         137.6671  137.1768  166.5567 H       1  UNL1        0.1192
     23 H         136.8506  138.3346  167.4326 H       1  UNL1        0.1192
     24 C         145.5858  140.4391  164.1609 C.3     1  UNL1        0.1257
     25 C         145.9403  141.7985  163.6354 C.3     1  UNL1        0.1586
     26 O         145.8481  142.0819  162.1653 O.3     1  UNL1       -0.3802
     27 H         146.5050  141.5484  161.6913 H       1  UNL1        0.2105
@<TRIPOS>BOND
     1     1     2    1
     2     2     3   ar
     3     3     4   ar
     4     4     5   ar
     5     5     6   ar
     6     6    12    1
     7    12    13   ar
     8    13    14   ar
     9    14    15   ar
    10    15    16    1
    11    15    17   ar
    12    17    18   ar
    13    18    19    1
    14     6     7   ar
    15     7    20    1
    16    20    21    1
    17     5     8    1
    18     8     9    1
    19     9    24    1
    20    24    25    1
    21    25    26    1
    22     9    10   am
    23    10    11    2
    24     7     2   ar
    25    10     4    1
    26    18    12   ar
    27    21    22    1
    28    21    23    1
    29    26    27    1
@<TRIPOS>MOLECULE
*****
 27 29 0 0 0
SMALL
GASTEIGER

@<TRIPOS>ATOM
      1 C         138.6551  137.4708  164.9656 C.3     1  UNL1        0.0518
      2 C         139.2120  138.6429  165.7179 C.ar    1  UNL1        0.0568
      3 N         138.9045  138.8127  167.1762 N.ar    1  UNL1       -0.2456
      4 C         139.4614  139.9848  167.9286 C.ar    1  UNL1        0.1319
      5 C         140.3256  140.9871  167.2227 C.ar    1  UNL1        0.0196
      6 C         140.6331  140.8174  165.7644 C.ar    1  UNL1       -0.0015
      7 C         140.0762  139.6452  165.0121 C.ar    1  UNL1        0.0068
      8 C         140.7297  142.0337  168.2184 C.3     1  UNL1        0.1222
      9 N         140.1151  141.6781  169.5397 N.am    1  UNL1       -0.2681
     10 C         139.3312  140.4118  169.3607 C.2     1  UNL1        0.2668
     11 O         138.5538  139.6980  170.4265 O.2     1  UNL1       -0.2683
     12 C         141.4974  141.8198  165.0584 C.ar    1  UNL1        0.0102
     13 C         142.9793  141.6038  164.9726 C.ar    1  UNL1        0.0017
     14 C         143.8436  142.6061  164.2667 C.ar    1  UNL1        0.0114
     15 C         143.2260  143.8242  163.6466 C.ar    1  UNL1        0.0585
     16 CL        144.0903  144.8265  162.9406 Cl      1  UNL1       -0.0822
     17 C         141.7441  144.0402  163.7323 C.ar    1  UNL1        0.0228
     18 C         140.8797  143.0379  164.4383 C.ar    1  UNL1        0.0585
     19 CL        139.3979  143.2538  164.5241 Cl      1  UNL1       -0.0822
     20 C         140.3836  139.4755  163.5537 C.3     1  UNL1        0.0934
     21 N         139.4559  140.0429  162.5206 N.3     1  UNL1       -0.3174
     22 H         138.5604  139.5565  162.5640 H       1  UNL1        0.1192
     23 H         139.8641  139.9217  161.5937 H       1  UNL1        0.1192
     24 C         140.2591  142.4528  170.8161 C.3     1  UNL1        0.1257
     25 C         139.4132  143.6683  171.0552 C.3     1  UNL1        0.1586
     26 O         139.7905  144.9792  170.4312 O.3     1  UNL1       -0.3802
     27 H         140.6287  145.2879  170.8093 H       1  UNL1        0.2105
@<TRIPOS>BOND
     1     1     2    1
     2     2     3   ar
     3     3     4   ar
     4     4     5   ar
     5     5     6   ar
     6     6    12    1
     7    12    13   ar
     8    13    14   ar
     9    14    15   ar
    10    15    16    1
    11    15    17   ar
    12    17    18   ar
    13    18    19    1
    14     6     7   ar
    15     7    20    1
    16    20    21    1
    17     5     8    1
    18     8     9    1
    19     9    24    1
    20    24    25    1
    21    25    26    1
    22     9    10   am
    23    10    11    2
    24     7     2   ar
    25    10     4    1
    26    18    12   ar
    27    21    22    1
    28    21    23    1
    29    26    27    1
@<TRIPOS>MOLECULE
*****
 27 29 0 0 0
SMALL
GASTEIGER

@<TRIPOS>ATOM
      1 C         144.3840  138.7820  162.7810 C.3     1  UNL1        0.0518
      2 C         143.4838  139.8876  163.2475 C.ar    1  UNL1        0.0568
      3 N         143.3678  141.1493  162.4446 N.ar    1  UNL1       -0.2456
      4 C         142.4678  142.2549  162.9110 C.ar    1  UNL1        0.1319
      5 C         141.6837  142.0988  164.1802 C.ar    1  UNL1        0.0196
      6 C         141.7997  140.8371  164.9830 C.ar    1  UNL1       -0.0015
      7 C         142.6998  139.7315  164.5166 C.ar    1  UNL1        0.0068
      8 C         140.8835  143.3504  164.3877 C.3     1  UNL1        0.1222
      9 N         141.1730  144.2801  163.2467 N.am    1  UNL1       -0.2681
     10 C         142.1521  143.6031  162.3340 C.2     1  UNL1        0.2668
     11 O         142.7165  144.1740  161.0669 O.2     1  UNL1       -0.2683
     12 C         141.0157  140.6809  166.2523 C.ar    1  UNL1        0.0102
     13 C         139.7213  139.9230  166.2457 C.ar    1  UNL1        0.0017
     14 C         138.9372  139.7668  167.5149 C.ar    1  UNL1        0.0114
     15 C         139.4476  140.3684  168.7906 C.ar    1  UNL1        0.0585
     16 CL        138.6635  140.2121  170.0598 Cl      1  UNL1       -0.0822
     17 C         140.7420  141.1263  168.7972 C.ar    1  UNL1        0.0228
     18 C         141.5261  141.2825  167.5280 C.ar    1  UNL1        0.0585
     19 CL        142.8206  142.0404  167.5346 Cl      1  UNL1       -0.0822
     20 C         142.8159  138.4697  165.3195 C.3     1  UNL1        0.0934
     21 N         143.8166  138.3787  166.4332 N.3     1  UNL1       -0.3174
     22 H         144.7597  138.4228  166.0473 H       1  UNL1        0.1192
     23 H         143.6933  137.4963  166.9298 H       1  UNL1        0.1192
     24 C         140.5864  145.6469  163.0524 C.3     1  UNL1        0.1257
     25 C         139.5617  145.8780  161.9817 C.3     1  UNL1        0.1586
     26 O         139.9133  145.6400  160.5430 O.3     1  UNL1       -0.3802
     27 H         140.5863  146.2805  160.2644 H       1  UNL1        0.2105
@<TRIPOS>BOND
     1     1     2    1
     2     2     3   ar
     3     3     4   ar
     4     4     5   ar
     5     5     6   ar
     6     6    12    1
     7    12    13   ar
     8    13    14   ar
     9    14    15   ar
    10    15    16    1
    11    15    17   ar
    12    17    18   ar
    13    18    19    1
    14     6     7   ar
    15     7    20    1
    16    20    21    1
    17     5     8    1
    18     8     9    1
    19     9    24    1
    20    24    25    1
    21    25    26    1
    22     9    10   am
    23    10    11    2
    24     7     2   ar
    25    10     4    1
    26    18    12   ar
    27    21    22    1
    28    21    23    1
    29    26    27    1
@<TRIPOS>MOLECULE
*****
 27 29 0 0 0
SMALL
GASTEIGER

@<TRIPOS>ATOM
      1 C         139.2338  144.7009  164.7375 C.3     1  UNL1        0.0518
      2 C         139.9372  143.4932  165.2825 C.ar    1  UNL1        0.0568
      3 N         139.9459  143.2335  166.7598 N.ar    1  UNL1       -0.2456
      4 C         140.6492  142.0259  167.3048 C.ar    1  UNL1        0.1319
      5 C         141.3438  141.0780  166.3725 C.ar    1  UNL1        0.0196
      6 C         141.3350  141.3377  164.8952 C.ar    1  UNL1       -0.0015
      7 C         140.6317  142.5454  164.3502 C.ar    1  UNL1        0.0068
      8 C         141.9494  139.9794  167.1948 C.3     1  UNL1        0.1222
      9 N         141.6291  140.2482  168.6353 N.am    1  UNL1       -0.2681
     10 C         140.8255  141.5130  168.7033 C.2     1  UNL1        0.2668
     11 O         140.2920  142.1527  169.9508 O.2     1  UNL1       -0.2683
     12 C         142.0296  140.3899  163.9628 C.ar    1  UNL1        0.0102
     13 C         143.4729  140.6033  163.6146 C.ar    1  UNL1        0.0017
     14 C         144.1676  139.6555  162.6823 C.ar    1  UNL1        0.0114
     15 C         143.4188  138.4944  162.0982 C.ar    1  UNL1        0.0585
     16 CL        144.1134  137.5467  161.1659 Cl      1  UNL1       -0.0822
     17 C         141.9755  138.2811  162.4464 C.ar    1  UNL1        0.0228
     18 C         141.2808  139.2288  163.3788 C.ar    1  UNL1        0.0585
     19 CL        139.8375  139.0155  163.7270 Cl      1  UNL1       -0.0822
     20 C         140.6229  142.8052  162.8728 C.3     1  UNL1        0.0934
     21 N         139.5349  142.2285  162.0163 N.3     1  UNL1       -0.3174
     22 H         139.6100  141.2113  162.0103 H       1  UNL1        0.1192
     23 H         139.6284  142.5820  161.0641 H       1  UNL1        0.1192
     24 C         142.0402  139.4011  169.8030 C.3     1  UNL1        0.1257
     25 C         142.9050  139.9809  170.8827 C.3     1  UNL1        0.1586
     26 O         142.2888  140.7974  171.9799 O.3     1  UNL1       -0.3802
     27 H         141.9233  141.6153  171.6080 H       1  UNL1        0.2105
@<TRIPOS>BOND
     1     1     2    1
     2     2     3   ar
     3     3     4   ar
     4     4     5   ar
     5     5     6   ar
     6     6    12    1
     7    12    13   ar
     8    13    14   ar
     9    14    15   ar
    10    15    16    1
    11    15    17   ar
    12    17    18   ar
    13    18    19    1
    14     6     7   ar
    15     7    20    1
    16    20    21    1
    17     5     8    1
    18     8     9    1
    19     9    24    1
    20    24    25    1
    21    25    26    1
    22     9    10   am
    23    10    11    2
    24     7     2   ar
    25    10     4    1
    26    18    12   ar
    27    21    22    1
    28    21    23    1
    29    26    27    1
