@<TRIPOS>MOLECULE
*****
 27 29 0 0 0
SMALL
GASTEIGER

@<TRIPOS>ATOM
      1 C         141.7844  142.5642  165.9406 C.3     1  UNL1        0.1467
      2 C         140.4293  140.3282  171.0402 C.3     1  UNL1        0.0896
      3 N         140.9578  140.7296  169.6950 N.3     1  UNL1       -0.2715
      4 C         142.0780  139.9541  169.0675 C.3     1  UNL1        0.0725
      5 C         142.6065  140.3555  167.7223 C.3     1  UNL1        0.0238
      6 C         142.0149  141.5322  167.0046 C.3     1  UNL1        0.0489
      7 C         140.8947  142.3077  167.6321 C.3     1  UNL1        0.0238
      8 C         140.3662  141.9063  168.9773 C.3     1  UNL1        0.0725
      9 C         143.0551  141.1152  166.0075 C.ar    1  UNL1       -0.0204
     10 C         143.8750  142.1532  165.3004 C.ar    1  UNL1       -0.0042
     11 C         144.9152  141.7363  164.3034 C.ar    1  UNL1       -0.0003
     12 C         145.1354  140.2811  164.0135 C.ar    1  UNL1       -0.0000
     13 C         144.3155  139.2430  164.7206 C.ar    1  UNL1       -0.0003
     14 C         143.2753  139.6600  165.7176 C.ar    1  UNL1       -0.0042
     15 O         140.3891  142.8729  165.4849 O.3     1  UNL1       -0.3470
     16 C         139.7467  142.0373  164.4175 C.3     1  UNL1        0.1875
     17 C         139.6291  140.5527  164.5965 C.ar    1  UNL1        0.0897
     18 C         138.6897  139.9931  165.6233 C.ar    1  UNL1        0.0212
     19 C         138.5722  138.5085  165.8022 C.ar    1  UNL1        0.0750
     20 C         139.3939  137.5834  164.9544 C.ar    1  UNL1        0.0346
     21 C         140.3334  138.1430  163.9275 C.ar    1  UNL1        0.1380
     22 CL        141.1551  137.2180  163.0797 Cl      1  UNL1       -0.0614
     23 N         140.4509  139.6276  163.7485 N.ar    1  UNL1       -0.2358
     24 C         137.6328  137.9488  166.8291 C.3     1  UNL1        0.4187
     25 F         136.6934  137.3892  167.8560 F       1  UNL1       -0.1659
     26 F         137.5517  139.2940  167.4880 F       1  UNL1       -0.1659
     27 F         137.7139  136.6037  166.1702 F       1  UNL1       -0.1659
@<TRIPOS>BOND
     1     2     3    1
     2     3     4    1
     3     4     5    1
     4     5     6    1
     5     6     1    1
     6     1    15    1
     7    15    16    1
     8    16    17    1
     9    17    18   ar
    10    18    19   ar
    11    19    24    1
    12    24    25    1
    13    24    26    1
    14    24    27    1
    15    19    20   ar
    16    20    21   ar
    17    21    22    1
    18    21    23   ar
    19     6     9    1
    20     9    10   ar
    21    10    11   ar
    22    11    12   ar
    23    12    13   ar
    24    13    14   ar
    25     6     7    1
    26     7     8    1
    27     8     3    1
    28    23    17   ar
    29    14     9   ar
@<TRIPOS>MOLECULE
*****
 27 29 0 0 0
SMALL
GASTEIGER

@<TRIPOS>ATOM
      1 C         143.5171  142.4557  166.1440 C.3     1  UNL1        0.1467
      2 C         141.5506  137.6273  163.7647 C.3     1  UNL1        0.0896
      3 N         141.8927  138.8473  164.5675 N.3     1  UNL1       -0.2715
      4 C         141.1500  139.1423  165.8369 C.3     1  UNL1        0.0725
      5 C         141.4921  140.3624  166.6397 C.3     1  UNL1        0.0238
      6 C         142.5769  141.2873  166.1732 C.3     1  UNL1        0.0489
      7 C         143.3195  140.9923  164.9038 C.3     1  UNL1        0.0238
      8 C         142.9774  139.7723  164.1010 C.3     1  UNL1        0.0725
      9 C         142.1607  141.9882  167.4324 C.ar    1  UNL1       -0.0204
     10 C         143.1369  142.1467  168.5602 C.ar    1  UNL1       -0.0042
     11 C         142.7208  142.8474  169.8195 C.ar    1  UNL1       -0.0003
     12 C         141.3284  143.3897  169.9509 C.ar    1  UNL1       -0.0000
     13 C         140.3522  143.2313  168.8231 C.ar    1  UNL1       -0.0003
     14 C         140.7684  142.5304  167.5639 C.ar    1  UNL1       -0.0042
     15 O         144.0623  142.9471  164.8358 O.3     1  UNL1       -0.3470
     16 C         143.6913  144.3110  164.3335 C.3     1  UNL1        0.1875
     17 C         142.3959  144.5153  163.6053 C.ar    1  UNL1        0.0897
     18 C         141.0960  144.4297  164.3489 C.ar    1  UNL1        0.0212
     19 C         139.8006  144.6340  163.6207 C.ar    1  UNL1        0.0750
     20 C         139.8051  144.9238  162.1490 C.ar    1  UNL1        0.0346
     21 C         141.1051  145.0094  161.4054 C.ar    1  UNL1        0.1380
     22 CL        141.1096  145.2992  159.9337 Cl      1  UNL1       -0.0614
     23 N         142.4005  144.8051  162.1336 N.ar    1  UNL1       -0.2358
     24 C         138.5006  144.5484  164.3642 C.3     1  UNL1        0.4187
     25 F         137.2007  144.4629  165.1076 F       1  UNL1       -0.1659
     26 F         137.7770  144.3125  163.0716 F       1  UNL1       -0.1659
     27 F         139.2243  144.7844  165.6567 F       1  UNL1       -0.1659
@<TRIPOS>BOND
     1     2     3    1
     2     3     4    1
     3     4     5    1
     4     5     6    1
     5     6     1    1
     6     1    15    1
     7    15    16    1
     8    16    17    1
     9    17    18   ar
    10    18    19   ar
    11    19    24    1
    12    24    25    1
    13    24    26    1
    14    24    27    1
    15    19    20   ar
    16    20    21   ar
    17    21    22    1
    18    21    23   ar
    19     6     9    1
    20     9    10   ar
    21    10    11   ar
    22    11    12   ar
    23    12    13   ar
    24    13    14   ar
    25     6     7    1
    26     7     8    1
    27     8     3    1
    28    23    17   ar
    29    14     9   ar
@<TRIPOS>MOLECULE
*****
 27 29 0 0 0
SMALL
GASTEIGER

@<TRIPOS>ATOM
      1 C         142.1690  142.7933  164.8324 C.3     1  UNL1        0.1467
      2 C         142.1475  141.8796  170.4898 C.3     1  UNL1        0.0896
      3 N         141.9111  142.1866  169.0407 N.3     1  UNL1       -0.2715
      4 C         140.5649  142.6665  168.5856 C.3     1  UNL1        0.0725
      5 C         140.3285  142.9735  167.1365 C.3     1  UNL1        0.0238
      6 C         141.4385  142.8005  166.1425 C.3     1  UNL1        0.0489
      7 C         142.7847  142.3206  166.5976 C.3     1  UNL1        0.0238
      8 C         143.0211  142.0136  168.0467 C.3     1  UNL1        0.0725
      9 C         140.3458  143.2780  165.2324 C.ar    1  UNL1       -0.0204
     10 C         138.9893  142.6406  165.2905 C.ar    1  UNL1       -0.0042
     11 C         137.8966  143.1180  164.3805 C.ar    1  UNL1       -0.0003
     12 C         138.1607  144.2328  163.4123 C.ar    1  UNL1       -0.0000
     13 C         139.5172  144.8703  163.3541 C.ar    1  UNL1       -0.0003
     14 C         140.6099  144.3928  164.2642 C.ar    1  UNL1       -0.0042
     15 O         143.0212  141.6180  164.4553 O.3     1  UNL1       -0.3470
     16 C         142.5297  140.6307  163.4385 C.3     1  UNL1        0.1875
     17 C         141.0793  140.2497  163.4031 C.ar    1  UNL1        0.0897
     18 C         140.4887  139.4411  164.5201 C.ar    1  UNL1        0.0212
     19 C         139.0384  139.0602  164.4846 C.ar    1  UNL1        0.0750
     20 C         138.1785  139.4879  163.3323 C.ar    1  UNL1        0.0346
     21 C         138.7690  140.2965  162.2154 C.ar    1  UNL1        0.1380
     22 CL        137.9092  140.7241  161.0632 Cl      1  UNL1       -0.0614
     23 N         140.2194  140.6774  162.2508 N.ar    1  UNL1       -0.2358
     24 C         138.4477  138.2516  165.6015 C.3     1  UNL1        0.4187
     25 F         137.8571  137.4431  166.7183 F       1  UNL1       -0.1659
     26 F         137.6220  139.4322  166.0194 F       1  UNL1       -0.1659
     27 F         139.2734  137.0712  165.1835 F       1  UNL1       -0.1659
@<TRIPOS>BOND
     1     2     3    1
     2     3     4    1
     3     4     5    1
     4     5     6    1
     5     6     1    1
     6     1    15    1
     7    15    16    1
     8    16    17    1
     9    17    18   ar
    10    18    19   ar
    11    19    24    1
    12    24    25    1
    13    24    26    1
    14    24    27    1
    15    19    20   ar
    16    20    21   ar
    17    21    22    1
    18    21    23   ar
    19     6     9    1
    20     9    10   ar
    21    10    11   ar
    22    11    12   ar
    23    12    13   ar
    24    13    14   ar
    25     6     7    1
    26     7     8    1
    27     8     3    1
    28    23    17   ar
    29    14     9   ar
@<TRIPOS>MOLECULE
*****
 27 29 0 0 0
SMALL
GASTEIGER

@<TRIPOS>ATOM
      1 C         139.6599  143.3637  166.0702 C.3     1  UNL1        0.1467
      2 C         144.7533  142.7599  163.5139 C.3     1  UNL1        0.0896
      3 N         143.5160  142.7664  164.3619 N.3     1  UNL1       -0.2715
      4 C         143.4815  141.9891  165.6443 C.3     1  UNL1        0.0725
      5 C         142.2442  141.9957  166.4923 C.3     1  UNL1        0.0238
      6 C         141.0414  142.7794  166.0578 C.3     1  UNL1        0.0489
      7 C         141.0758  143.5566  164.7754 C.3     1  UNL1        0.0238
      8 C         142.3131  143.5501  163.9274 C.3     1  UNL1        0.0725
      9 C         140.5271  142.2051  167.3446 C.ar    1  UNL1       -0.0204
     10 C         140.5409  143.0342  168.5944 C.ar    1  UNL1       -0.0042
     11 C         140.0267  142.4600  169.8812 C.ar    1  UNL1       -0.0003
     12 C         139.4988  141.0565  169.9181 C.ar    1  UNL1       -0.0000
     13 C         139.4850  140.2272  168.6682 C.ar    1  UNL1       -0.0003
     14 C         139.9992  140.8016  167.3814 C.ar    1  UNL1       -0.0042
     15 O         139.0114  143.7831  164.7843 O.3     1  UNL1       -0.3470
     16 C         137.7753  143.0819  164.3042 C.3     1  UNL1        0.1875
     17 C         137.8819  141.7335  163.6558 C.ar    1  UNL1        0.0897
     18 C         138.2455  140.5326  164.4778 C.ar    1  UNL1        0.0212
     19 C         138.3521  139.1842  163.8294 C.ar    1  UNL1        0.0750
     20 C         138.0951  139.0367  162.3590 C.ar    1  UNL1        0.0346
     21 C         137.7315  140.2375  161.5369 C.ar    1  UNL1        0.1380
     22 CL        137.4744  140.0899  160.0665 Cl      1  UNL1       -0.0614
     23 N         137.6248  141.5859  162.1853 N.ar    1  UNL1       -0.2358
     24 C         138.7158  137.9833  164.6514 C.3     1  UNL1        0.4187
     25 F         139.0794  136.7825  165.4734 F       1  UNL1       -0.1659
     26 F         138.0547  138.6019  165.8474 F       1  UNL1       -0.1659
     27 F         139.3768  137.3649  163.4553 F       1  UNL1       -0.1659
@<TRIPOS>BOND
     1     2     3    1
     2     3     4    1
     3     4     5    1
     4     5     6    1
     5     6     1    1
     6     1    15    1
     7    15    16    1
     8    16    17    1
     9    17    18   ar
    10    18    19   ar
    11    19    24    1
    12    24    25    1
    13    24    26    1
    14    24    27    1
    15    19    20   ar
    16    20    21   ar
    17    21    22    1
    18    21    23   ar
    19     6     9    1
    20     9    10   ar
    21    10    11   ar
    22    11    12   ar
    23    12    13   ar
    24    13    14   ar
    25     6     7    1
    26     7     8    1
    27     8     3    1
    28    23    17   ar
    29    14     9   ar
@<TRIPOS>MOLECULE
*****
 27 29 0 0 0
SMALL
GASTEIGER

@<TRIPOS>ATOM
      1 C         140.3905  137.7779  162.7869 C.3     1  UNL1        0.1467
      2 C         138.0810  140.4075  158.2488 C.3     1  UNL1        0.0896
      3 N         138.4974  139.8268  159.5677 N.3     1  UNL1       -0.2715
      4 C         137.7069  140.1331  160.8051 C.3     1  UNL1        0.0725
      5 C         138.1233  139.5525  162.1240 C.3     1  UNL1        0.0238
      6 C         139.3302  138.6656  162.2055 C.3     1  UNL1        0.0489
      7 C         140.1207  138.3593  160.9681 C.3     1  UNL1        0.0238
      8 C         139.7043  138.9399  159.6492 C.3     1  UNL1        0.0725
      9 C         138.9079  138.6636  163.6449 C.ar    1  UNL1       -0.0204
     10 C         138.4963  139.9448  164.3075 C.ar    1  UNL1       -0.0042
     11 C         138.0740  139.9429  165.7468 C.ar    1  UNL1       -0.0003
     12 C         138.0633  138.6597  166.5234 C.ar    1  UNL1       -0.0000
     13 C         138.4749  137.3784  165.8609 C.ar    1  UNL1       -0.0003
     14 C         138.8972  137.3804  164.4215 C.ar    1  UNL1       -0.0042
     15 O         141.8387  138.1309  162.6196 O.3     1  UNL1       -0.3470
     16 C         142.6727  138.4653  163.8208 C.3     1  UNL1        0.1875
     17 C         142.2047  139.5083  164.7920 C.ar    1  UNL1        0.0897
     18 C         141.9325  139.1358  166.2193 C.ar    1  UNL1        0.0212
     19 C         141.4645  140.1788  167.1904 C.ar    1  UNL1        0.0750
     20 C         141.2686  141.5943  166.7343 C.ar    1  UNL1        0.0346
     21 C         141.5407  141.9668  165.3069 C.ar    1  UNL1        0.1380
     22 CL        141.3448  143.3822  164.8508 Cl      1  UNL1       -0.0614
     23 N         142.0087  140.9238  164.3358 N.ar    1  UNL1       -0.2358
     24 C         141.1924  139.8064  168.6178 C.3     1  UNL1        0.4187
     25 F         140.9202  139.4340  170.0451 F       1  UNL1       -0.1659
     26 F         139.8749  140.5207  168.5529 F       1  UNL1       -0.1659
     27 F         142.5098  139.0921  168.6825 F       1  UNL1       -0.1659
@<TRIPOS>BOND
     1     2     3    1
     2     3     4    1
     3     4     5    1
     4     5     6    1
     5     6     1    1
     6     1    15    1
     7    15    16    1
     8    16    17    1
     9    17    18   ar
    10    18    19   ar
    11    19    24    1
    12    24    25    1
    13    24    26    1
    14    24    27    1
    15    19    20   ar
    16    20    21   ar
    17    21    22    1
    18    21    23   ar
    19     6     9    1
    20     9    10   ar
    21    10    11   ar
    22    11    12   ar
    23    12    13   ar
    24    13    14   ar
    25     6     7    1
    26     7     8    1
    27     8     3    1
    28    23    17   ar
    29    14     9   ar
@<TRIPOS>MOLECULE
*****
 27 29 0 0 0
SMALL
GASTEIGER

@<TRIPOS>ATOM
      1 C         142.2529  139.5450  166.0192 C.3     1  UNL1        0.1467
      2 C         141.1058  141.0016  171.4418 C.3     1  UNL1        0.0896
      3 N         141.1547  140.6035  169.9964 N.3     1  UNL1       -0.2715
      4 C         139.8817  140.3469  169.2456 C.3     1  UNL1        0.0725
      5 C         139.9306  139.9488  167.8003 C.3     1  UNL1        0.0238
      6 C         141.2525  139.8072  167.1056 C.3     1  UNL1        0.0489
      7 C         142.5254  140.0638  167.8564 C.3     1  UNL1        0.0238
      8 C         142.4765  140.4619  169.3017 C.3     1  UNL1        0.0725
      9 C         140.3269  139.4596  165.9776 C.ar    1  UNL1       -0.0204
     10 C         139.0281  140.1932  165.8198 C.ar    1  UNL1       -0.0042
     11 C         138.1025  139.8456  164.6918 C.ar    1  UNL1       -0.0003
     12 C         138.4758  138.7643  163.7215 C.ar    1  UNL1       -0.0000
     13 C         139.7746  138.0306  163.8792 C.ar    1  UNL1       -0.0003
     14 C         140.7002  138.3783  165.0073 C.ar    1  UNL1       -0.0042
     15 O         143.3558  140.5286  165.7618 O.3     1  UNL1       -0.3470
     16 C         143.2734  141.4572  164.5867 C.3     1  UNL1        0.1875
     17 C         141.9389  141.9552  164.1164 C.ar    1  UNL1        0.0897
     18 C         141.1909  142.9733  164.9251 C.ar    1  UNL1        0.0212
     19 C         139.8564  143.4712  164.4548 C.ar    1  UNL1        0.0750
     20 C         139.2699  142.9511  163.1759 C.ar    1  UNL1        0.0346
     21 C         140.0180  141.9330  162.3673 C.ar    1  UNL1        0.1380
     22 CL        139.4315  141.4129  161.0884 Cl      1  UNL1       -0.0614
     23 N         141.3525  141.4350  162.8375 N.ar    1  UNL1       -0.2358
     24 C         139.1083  144.4894  165.2634 C.3     1  UNL1        0.4187
     25 F         138.3602  145.5075  166.0720 F       1  UNL1       -0.1659
     26 F         139.6006  143.8477  166.5267 F       1  UNL1       -0.1659
     27 F         138.6160  145.1310  164.0001 F       1  UNL1       -0.1659
@<TRIPOS>BOND
     1     2     3    1
     2     3     4    1
     3     4     5    1
     4     5     6    1
     5     6     1    1
     6     1    15    1
     7    15    16    1
     8    16    17    1
     9    17    18   ar
    10    18    19   ar
    11    19    24    1
    12    24    25    1
    13    24    26    1
    14    24    27    1
    15    19    20   ar
    16    20    21   ar
    17    21    22    1
    18    21    23   ar
    19     6     9    1
    20     9    10   ar
    21    10    11   ar
    22    11    12   ar
    23    12    13   ar
    24    13    14   ar
    25     6     7    1
    26     7     8    1
    27     8     3    1
    28    23    17   ar
    29    14     9   ar
@<TRIPOS>MOLECULE
*****
 27 29 0 0 0
SMALL
GASTEIGER

@<TRIPOS>ATOM
      1 C         141.7967  137.8903  163.8086 C.3     1  UNL1        0.1467
      2 C         141.5060  138.5266  158.1206 C.3     1  UNL1        0.0896
      3 N         141.3498  138.4609  159.6110 N.3     1  UNL1       -0.2715
      4 C         140.0873  138.9519  160.2552 C.3     1  UNL1        0.0725
      5 C         139.9310  138.8862  161.7456 C.3     1  UNL1        0.0238
      6 C         141.0373  138.3295  162.5918 C.3     1  UNL1        0.0489
      7 C         142.2998  137.8385  161.9477 C.3     1  UNL1        0.0238
      8 C         142.4560  137.9042  160.4573 C.3     1  UNL1        0.0725
      9 C         140.0385  138.6680  163.6586 C.ar    1  UNL1       -0.0204
     10 C         139.4182  140.0331  163.6992 C.ar    1  UNL1       -0.0042
     11 C         138.4195  140.3717  164.7659 C.ar    1  UNL1       -0.0003
     12 C         138.0410  139.3450  165.7919 C.ar    1  UNL1       -0.0000
     13 C         138.6612  137.9798  165.7513 C.ar    1  UNL1       -0.0003
     14 C         139.6600  137.6413  164.6846 C.ar    1  UNL1       -0.0042
     15 O         143.1467  138.4749  164.1016 O.3     1  UNL1       -0.3470
     16 C         143.3938  139.1752  165.4050 C.3     1  UNL1        0.1875
     17 C         142.4950  140.2959  165.8364 C.ar    1  UNL1        0.0897
     18 C         141.6641  140.1556  167.0774 C.ar    1  UNL1        0.0212
     19 C         140.7653  141.2763  167.5088 C.ar    1  UNL1        0.0750
     20 C         140.6974  142.5373  166.6993 C.ar    1  UNL1        0.0346
     21 C         141.5283  142.6776  165.4583 C.ar    1  UNL1        0.1380
     22 CL        141.4604  143.9386  164.6489 Cl      1  UNL1       -0.0614
     23 N         142.4271  141.5569  165.0269 N.ar    1  UNL1       -0.2358
     24 C         139.9344  141.1361  168.7498 C.3     1  UNL1        0.4187
     25 F         139.1035  140.9959  169.9907 F       1  UNL1       -0.1659
     26 F         139.9835  142.6218  168.9504 F       1  UNL1       -0.1659
     27 F         139.8853  139.6504  168.5490 F       1  UNL1       -0.1659
@<TRIPOS>BOND
     1     2     3    1
     2     3     4    1
     3     4     5    1
     4     5     6    1
     5     6     1    1
     6     1    15    1
     7    15    16    1
     8    16    17    1
     9    17    18   ar
    10    18    19   ar
    11    19    24    1
    12    24    25    1
    13    24    26    1
    14    24    27    1
    15    19    20   ar
    16    20    21   ar
    17    21    22    1
    18    21    23   ar
    19     6     9    1
    20     9    10   ar
    21    10    11   ar
    22    11    12   ar
    23    12    13   ar
    24    13    14   ar
    25     6     7    1
    26     7     8    1
    27     8     3    1
    28    23    17   ar
    29    14     9   ar
@<TRIPOS>MOLECULE
*****
 27 29 0 0 0
SMALL
GASTEIGER

@<TRIPOS>ATOM
      1 C         140.0047  140.2779  165.3494 C.3     1  UNL1        0.1467
      2 C         142.6616  140.8998  170.3889 C.3     1  UNL1        0.0896
      3 N         141.8952  140.9781  169.1018 N.3     1  UNL1       -0.2715
      4 C         141.2031  142.2520  168.7173 C.3     1  UNL1        0.0725
      5 C         140.4368  142.3303  167.4302 C.3     1  UNL1        0.0238
      6 C         140.3625  141.1346  166.5276 C.3     1  UNL1        0.0489
      7 C         141.0546  139.8606  166.9122 C.3     1  UNL1        0.0238
      8 C         141.8209  139.7823  168.1992 C.3     1  UNL1        0.0725
      9 C         139.5461  142.1111  165.7339 C.ar    1  UNL1       -0.0204
     10 C         138.4406  141.6187  164.8478 C.ar    1  UNL1       -0.0042
     11 C         137.6242  142.5952  164.0541 C.ar    1  UNL1       -0.0003
     12 C         137.9134  144.0641  164.1465 C.ar    1  UNL1       -0.0000
     13 C         139.0190  144.5566  165.0327 C.ar    1  UNL1       -0.0003
     14 C         139.8353  143.5801  165.8264 C.ar    1  UNL1       -0.0042
     15 O         141.0581  139.4468  164.6790 O.3     1  UNL1       -0.3470
     16 C         141.6819  139.9168  163.3983 C.3     1  UNL1        0.1875
     17 C         141.6094  141.3655  163.0163 C.ar    1  UNL1        0.0897
     18 C         142.5012  142.3648  163.6916 C.ar    1  UNL1        0.0212
     19 C         142.4286  143.8135  163.3095 C.ar    1  UNL1        0.0750
     20 C         141.4644  144.2629  162.2521 C.ar    1  UNL1        0.0346
     21 C         140.5725  143.2636  161.5767 C.ar    1  UNL1        0.1380
     22 CL        139.6083  143.7130  160.5193 Cl      1  UNL1       -0.0614
     23 N         140.6450  141.8149  161.9588 N.ar    1  UNL1       -0.2358
     24 C         143.3204  144.8129  163.9849 C.3     1  UNL1        0.4187
     25 F         144.2121  145.8122  164.6602 F       1  UNL1       -0.1659
     26 F         142.1652  145.7621  164.1055 F       1  UNL1       -0.1659
     27 F         144.4756  143.8636  163.8642 F       1  UNL1       -0.1659
@<TRIPOS>BOND
     1     2     3    1
     2     3     4    1
     3     4     5    1
     4     5     6    1
     5     6     1    1
     6     1    15    1
     7    15    16    1
     8    16    17    1
     9    17    18   ar
    10    18    19   ar
    11    19    24    1
    12    24    25    1
    13    24    26    1
    14    24    27    1
    15    19    20   ar
    16    20    21   ar
    17    21    22    1
    18    21    23   ar
    19     6     9    1
    20     9    10   ar
    21    10    11   ar
    22    11    12   ar
    23    12    13   ar
    24    13    14   ar
    25     6     7    1
    26     7     8    1
    27     8     3    1
    28    23    17   ar
    29    14     9   ar
@<TRIPOS>MOLECULE
*****
 27 29 0 0 0
SMALL
GASTEIGER

@<TRIPOS>ATOM
      1 C         138.6642  138.2320  163.0178 C.3     1  UNL1        0.1467
      2 C         144.1518  137.9138  161.3973 C.3     1  UNL1        0.0896
      3 N         142.8086  138.0488  162.0512 N.3     1  UNL1       -0.2715
      4 C         142.7152  138.3726  163.5128 C.3     1  UNL1        0.0725
      5 C         141.3720  138.5076  164.1667 C.3     1  UNL1        0.0238
      6 C         140.1223  138.3188  163.3591 C.3     1  UNL1        0.0489
      7 C         140.2157  137.9950  161.8974 C.3     1  UNL1        0.0238
      8 C         141.5589  137.8600  161.2435 C.3     1  UNL1        0.0725
      9 C         139.5225  138.6125  164.7022 C.ar    1  UNL1       -0.0204
     10 C         138.5220  137.6679  165.2995 C.ar    1  UNL1       -0.0042
     11 C         137.9222  137.9615  166.6427 C.ar    1  UNL1       -0.0003
     12 C         138.3229  139.1997  167.3885 C.ar    1  UNL1       -0.0000
     13 C         139.3234  140.1443  166.7912 C.ar    1  UNL1       -0.0003
     14 C         139.9232  139.8507  165.4480 C.ar    1  UNL1       -0.0042
     15 O         138.1159  139.0181  161.8639 O.3     1  UNL1       -0.3470
     16 C         137.6167  140.4162  162.0787 C.3     1  UNL1        0.1875
     17 C         138.5539  141.4802  162.5681 C.ar    1  UNL1        0.0897
     18 C         138.1131  142.4327  163.6399 C.ar    1  UNL1        0.0212
     19 C         139.0503  143.4966  164.1294 C.ar    1  UNL1        0.0750
     20 C         140.4282  143.6083  163.5471 C.ar    1  UNL1        0.0346
     21 C         140.8689  142.6558  162.4753 C.ar    1  UNL1        0.1380
     22 CL        142.2467  142.7675  161.8930 Cl      1  UNL1       -0.0614
     23 N         139.9317  141.5918  161.9858 N.ar    1  UNL1       -0.2358
     24 C         138.6097  144.4491  165.2012 C.3     1  UNL1        0.4187
     25 F         138.1691  145.4015  166.2730 F       1  UNL1       -0.1659
     26 F         139.8602  144.1557  165.9759 F       1  UNL1       -0.1659
     27 F         137.3593  144.7425  164.4264 F       1  UNL1       -0.1659
@<TRIPOS>BOND
     1     2     3    1
     2     3     4    1
     3     4     5    1
     4     5     6    1
     5     6     1    1
     6     1    15    1
     7    15    16    1
     8    16    17    1
     9    17    18   ar
    10    18    19   ar
    11    19    24    1
    12    24    25    1
    13    24    26    1
    14    24    27    1
    15    19    20   ar
    16    20    21   ar
    17    21    22    1
    18    21    23   ar
    19     6     9    1
    20     9    10   ar
    21    10    11   ar
    22    11    12   ar
    23    12    13   ar
    24    13    14   ar
    25     6     7    1
    26     7     8    1
    27     8     3    1
    28    23    17   ar
    29    14     9   ar
