@<TRIPOS>MOLECULE
*****
 39 44 0 0 0
SMALL
GASTEIGER

@<TRIPOS>ATOM
      1 C         142.8081  135.4763  157.6825 C.ar    1  UNL1        0.2400
      2 N         142.2028  134.9122  156.4313 N.ar    1  UNL1       -0.2090
      3 C         141.4115  135.7983  155.5155 C.ar    1  UNL1        0.1042
      4 C         141.0314  137.2931  155.5499 C.ar    1  UNL1        0.0463
      5 C         141.8574  136.8711  156.7288 C.ar    1  UNL1        0.0242
      6 C         142.6221  136.9263  158.0180 C.ar    1  UNL1        0.1179
      7 N         143.2428  137.4530  159.2779 N.pl3   1  UNL1       -0.2104
      8 S         143.6521  138.3940  160.3720 S.O2    1  UNL1        0.0737
      9 O         144.1463  136.9913  160.5674 O.2     1  UNL1       -0.1499
     10 O         144.4584  138.2080  161.6230 O.2     1  UNL1       -0.1499
     11 C         143.7449  139.9988  161.2373 C.ar    1  UNL1        0.1253
     12 C         144.5332  139.9333  162.5118 C.ar    1  UNL1        0.0202
     13 C         144.7091  141.1653  163.3491 C.ar    1  UNL1        0.0015
     14 C         144.0967  142.4630  162.9118 C.ar    1  UNL1        0.0046
     15 C         143.3085  142.5285  161.6373 C.ar    1  UNL1        0.0547
     16 C         143.1326  141.2965  160.8001 C.ar    1  UNL1        0.0247
     17 C         142.7117  143.8442  161.2339 C.2     1  UNL1        0.2461
     18 O         143.1790  144.6896  162.3815 O.2     1  UNL1       -0.2701
     19 N         141.9611  144.8816  160.4527 N.am    1  UNL1       -0.2969
     20 C         141.1380  145.5284  159.3782 C.3     1  UNL1        0.1181
     21 C         140.3317  145.7143  158.1271 C.ar    1  UNL1        0.0163
     22 C         139.6349  146.9514  157.5234 C.ar    1  UNL1        0.0962
     23 N         138.8237  147.1773  156.2821 N.ar    1  UNL1       -0.2429
     24 C         138.5599  146.0392  155.3412 C.ar    1  UNL1        0.0949
     25 C         139.1073  144.6753  155.6416 C.ar    1  UNL1        0.0027
     26 C         139.6294  145.4193  156.8349 C.ar    1  UNL1       -0.0034
     27 C         138.8220  143.5631  154.6766 C.3     1  UNL1        0.0754
     28 C         138.8044  142.2029  154.0443 C.ar    1  UNL1        0.0862
     29 C         137.9769  142.7166  152.9035 C.ar    1  UNL1        0.1161
     30 N         137.7174  141.5735  151.9675 N.ar    1  UNL1       -0.2181
     31 C         138.3846  140.3535  152.5298 C.ar    1  UNL1        0.1966
     32 S         138.8556  138.9373  152.6808 S.2     1  UNL1       -0.0278
     33 C         140.2337  138.1469  154.6093 C.ar    1  UNL1        0.1350
     34 N         139.5507  139.3397  154.0087 N.ar    1  UNL1       -0.1569
     35 N         139.0564  140.7424  153.8133 N.ar    1  UNL1       -0.2085
     36 H         143.6642  136.6270  159.6085 H       1  UNL1        0.1739
     37 H         142.1057  145.6606  161.0371 H       1  UNL1        0.1501
     38 C         144.3849  133.4420  158.0371 C.3     1  UNL1        0.2543
     39 O         143.5995  134.5901  158.5982 O.3     1  UNL1       -0.4553
@<TRIPOS>BOND
     1    38    39    1
     2    39     1    1
     3     1     2   ar
     4     2     3   ar
     5     3     4   ar
     6     4     5   ar
     7     5     6   ar
     8     6     7    1
     9     7     8    1
    10     8     9    2
    11     8    10    2
    12     8    11    1
    13    11    12   ar
    14    12    13   ar
    15    13    14   ar
    16    14    15   ar
    17    15    16   ar
    18    15    17    1
    19    17    18    2
    20    17    19   am
    21    19    20    1
    22    20    21    1
    23    21    22   ar
    24    22    23   ar
    25    23    24   ar
    26    24    25   ar
    27    25    26   ar
    28    25    27    1
    29    27    28    1
    30    28    29   ar
    31    29    30   ar
    32    30    31   ar
    33    31    32   ar
    34    32    33   ar
    35    33    34   ar
    36    34    35   ar
    37     6     1   ar
    38    16    11   ar
    39    26    21   ar
    40    35    28   ar
    41    33     4    1
    42    35    31   ar
    43     7    36    1
    44    19    37    1
@<TRIPOS>MOLECULE
*****
 39 44 0 0 0
SMALL
GASTEIGER

@<TRIPOS>ATOM
      1 C         140.2950  145.7938  154.5295 C.ar    1  UNL1        0.2400
      2 N         139.8395  146.9965  155.3016 N.ar    1  UNL1       -0.2090
      3 C         139.7620  146.9414  156.7987 C.ar    1  UNL1        0.1042
      4 C         140.0659  145.8431  157.8387 C.ar    1  UNL1        0.0463
      5 C         140.3072  145.3966  156.4272 C.ar    1  UNL1        0.0242
      6 C         140.6729  144.5362  155.2542 C.ar    1  UNL1        0.1179
      7 N         141.1234  143.3549  154.4470 N.pl3   1  UNL1       -0.2104
      8 S         141.6099  141.9808  154.0929 S.O2    1  UNL1        0.0737
      9 O         141.3874  142.8665  152.9030 O.2     1  UNL1       -0.1499
     10 O         141.9176  141.3184  152.7828 O.2     1  UNL1       -0.1499
     11 C         142.1641  140.2744  154.4303 C.ar    1  UNL1        0.1253
     12 C         142.5020  139.5103  153.1845 C.ar    1  UNL1        0.0202
     13 C         142.9750  138.0902  153.2809 C.ar    1  UNL1        0.0015
     14 C         143.1103  137.4341  154.6230 C.ar    1  UNL1        0.0046
     15 C         142.7724  138.1982  155.8688 C.ar    1  UNL1        0.0547
     16 C         142.2993  139.6183  155.7724 C.ar    1  UNL1        0.0247
     17 C         142.9205  137.5077  157.1921 C.2     1  UNL1        0.2461
     18 O         143.4028  136.1684  156.7192 O.2     1  UNL1       -0.2701
     19 N         142.9098  137.2579  158.6711 N.am    1  UNL1       -0.2969
     20 C         142.7415  137.4762  160.1456 C.3     1  UNL1        0.1181
     21 C         142.4337  138.1388  161.4558 C.ar    1  UNL1        0.0163
     22 C         142.5112  137.6323  162.9110 C.ar    1  UNL1        0.0962
     23 N         142.2141  138.2598  164.2406 N.ar    1  UNL1       -0.2429
     24 C         141.7309  139.6783  164.3092 C.ar    1  UNL1        0.0949
     25 C         141.5450  140.4691  163.0482 C.ar    1  UNL1        0.0027
     26 C         142.0200  139.1737  162.4596 C.ar    1  UNL1       -0.0034
     27 C         141.0603  141.8843  163.1580 C.3     1  UNL1        0.0754
     28 C         140.6184  143.2662  162.7769 C.ar    1  UNL1        0.0862
     29 C         140.4056  143.6225  164.2184 C.ar    1  UNL1        0.1161
     30 N         139.9229  145.0414  164.2787 N.ar    1  UNL1       -0.2181
     31 C         139.8374  145.5620  162.8747 C.ar    1  UNL1        0.1966
     32 S         139.6000  146.4856  161.7167 S.2     1  UNL1       -0.0278
     33 C         139.9751  145.8272  159.3359 C.ar    1  UNL1        0.1350
     34 N         140.0447  145.3506  160.7565 N.ar    1  UNL1       -0.1569
     35 N         140.2672  144.4649  161.9465 N.ar    1  UNL1       -0.2085
     36 H         141.0517  143.7392  153.5434 H       1  UNL1        0.1739
     37 H         143.2241  136.3250  158.6802 H       1  UNL1        0.1501
     38 C         141.4747  146.6179  152.3663 C.3     1  UNL1        0.2543
     39 O         140.3725  145.8490  153.0325 O.3     1  UNL1       -0.4553
@<TRIPOS>BOND
     1    38    39    1
     2    39     1    1
     3     1     2   ar
     4     2     3   ar
     5     3     4   ar
     6     4     5   ar
     7     5     6   ar
     8     6     7    1
     9     7     8    1
    10     8     9    2
    11     8    10    2
    12     8    11    1
    13    11    12   ar
    14    12    13   ar
    15    13    14   ar
    16    14    15   ar
    17    15    16   ar
    18    15    17    1
    19    17    18    2
    20    17    19   am
    21    19    20    1
    22    20    21    1
    23    21    22   ar
    24    22    23   ar
    25    23    24   ar
    26    24    25   ar
    27    25    26   ar
    28    25    27    1
    29    27    28    1
    30    28    29   ar
    31    29    30   ar
    32    30    31   ar
    33    31    32   ar
    34    32    33   ar
    35    33    34   ar
    36    34    35   ar
    37     6     1   ar
    38    16    11   ar
    39    26    21   ar
    40    35    28   ar
    41    33     4    1
    42    35    31   ar
    43     7    36    1
    44    19    37    1
@<TRIPOS>MOLECULE
*****
 39 44 0 0 0
SMALL
GASTEIGER

@<TRIPOS>ATOM
      1 C         143.1270  136.2526  155.9707 C.ar    1  UNL1        0.2400
      2 N         143.3349  135.3367  157.1403 N.ar    1  UNL1       -0.2090
      3 C         143.1060  135.8381  158.5355 C.ar    1  UNL1        0.1042
      4 C         142.6665  137.1977  159.1172 C.ar    1  UNL1        0.0463
      5 C         142.7503  137.2005  157.6196 C.ar    1  UNL1        0.0242
      6 C         142.6904  137.6697  156.1961 C.ar    1  UNL1        0.1179
      7 N         142.4933  138.5547  155.0011 N.pl3   1  UNL1       -0.2104
      8 S         142.1803  139.7594  154.1641 S.O2    1  UNL1        0.0737
      9 O         142.5850  138.5577  153.3629 O.2     1  UNL1       -0.1499
     10 O         142.1925  139.9987  152.6834 O.2     1  UNL1       -0.1499
     11 C         141.6804  141.4886  153.8592 C.ar    1  UNL1        0.1253
     12 C         141.6564  141.8441  152.4022 C.ar    1  UNL1        0.0202
     13 C         141.2668  143.2279  151.9741 C.ar    1  UNL1        0.0015
     14 C         140.9010  144.2562  153.0031 C.ar    1  UNL1        0.0046
     15 C         140.9250  143.9007  154.4602 C.ar    1  UNL1        0.0547
     16 C         141.3146  142.5169  154.8882 C.ar    1  UNL1        0.0247
     17 C         140.5528  144.9563  155.4588 C.2     1  UNL1        0.2461
     18 O         140.2660  146.0922  154.5221 O.2     1  UNL1       -0.2701
     19 N         140.2750  145.6380  156.7657 N.am    1  UNL1       -0.2969
     20 C         140.1218  145.8718  158.2395 C.3     1  UNL1        0.1181
     21 C         140.1096  145.6325  159.7202 C.ar    1  UNL1        0.0163
     22 C         139.7673  146.5521  160.9108 C.ar    1  UNL1        0.0962
     23 N         139.7431  146.3520  162.3972 N.ar    1  UNL1       -0.2429
     24 C         140.1087  145.0193  162.9806 C.ar    1  UNL1        0.0949
     25 C         140.4985  143.8868  162.0776 C.ar    1  UNL1        0.0027
     26 C         140.2399  144.9461  161.0476 C.ar    1  UNL1       -0.0034
     27 C         140.8574  142.5695  162.6988 C.3     1  UNL1        0.0754
     28 C         141.2777  141.1368  162.8437 C.ar    1  UNL1        0.0862
     29 C         141.1657  141.2291  164.3367 C.ar    1  UNL1        0.1161
     30 N         141.5326  139.8935  164.9124 N.ar    1  UNL1       -0.2181
     31 C         141.8713  138.9758  163.7754 C.ar    1  UNL1        0.1966
     32 S         142.2815  137.7475  163.0183 S.2     1  UNL1       -0.0278
     33 C         142.4480  137.6618  160.5268 C.ar    1  UNL1        0.1350
     34 N         142.1185  138.5424  161.6956 N.ar    1  UNL1       -0.1569
     35 N         141.7138  139.7442  162.4968 N.ar    1  UNL1       -0.2085
     36 H         142.7244  137.9171  154.2874 H       1  UNL1        0.1739
     37 H         140.0268  146.5308  156.4332 H       1  UNL1        0.1501
     38 C         142.2618  135.0249  153.8508 C.3     1  UNL1        0.2543
     39 O         143.3559  135.7511  154.5757 O.3     1  UNL1       -0.4553
@<TRIPOS>BOND
     1    38    39    1
     2    39     1    1
     3     1     2   ar
     4     2     3   ar
     5     3     4   ar
     6     4     5   ar
     7     5     6   ar
     8     6     7    1
     9     7     8    1
    10     8     9    2
    11     8    10    2
    12     8    11    1
    13    11    12   ar
    14    12    13   ar
    15    13    14   ar
    16    14    15   ar
    17    15    16   ar
    18    15    17    1
    19    17    18    2
    20    17    19   am
    21    19    20    1
    22    20    21    1
    23    21    22   ar
    24    22    23   ar
    25    23    24   ar
    26    24    25   ar
    27    25    26   ar
    28    25    27    1
    29    27    28    1
    30    28    29   ar
    31    29    30   ar
    32    30    31   ar
    33    31    32   ar
    34    32    33   ar
    35    33    34   ar
    36    34    35   ar
    37     6     1   ar
    38    16    11   ar
    39    26    21   ar
    40    35    28   ar
    41    33     4    1
    42    35    31   ar
    43     7    36    1
    44    19    37    1
@<TRIPOS>MOLECULE
*****
 39 44 0 0 0
SMALL
GASTEIGER

@<TRIPOS>ATOM
      1 C         143.8882  141.8398  162.3757 C.ar    1  UNL1        0.2400
      2 N         144.5107  140.5838  162.9095 N.ar    1  UNL1       -0.2090
      3 C         144.3893  139.3013  162.1408 C.ar    1  UNL1        0.1042
      4 C         143.7150  138.9224  160.8060 C.ar    1  UNL1        0.0463
      5 C         143.5521  140.3723  161.1540 C.ar    1  UNL1        0.0242
      6 C         143.1443  141.8135  161.0735 C.ar    1  UNL1        0.1179
      7 N         142.5358  143.0899  160.5730 N.pl3   1  UNL1       -0.2104
      8 S         141.7925  144.0632  159.7068 S.O2    1  UNL1        0.0737
      9 O         142.3575  144.6759  160.9538 O.2     1  UNL1       -0.1499
     10 O         141.5032  145.5287  159.8424 O.2     1  UNL1       -0.1499
     11 C         140.8224  144.5923  158.2536 C.ar    1  UNL1        0.1253
     12 C         140.4726  146.0507  158.2812 C.ar    1  UNL1        0.0202
     13 C         139.6764  146.6523  157.1614 C.ar    1  UNL1        0.0015
     14 C         139.2299  145.7956  156.0139 C.ar    1  UNL1        0.0046
     15 C         139.5797  144.3372  155.9863 C.ar    1  UNL1        0.0547
     16 C         140.3759  143.7356  157.1061 C.ar    1  UNL1        0.0247
     17 C         139.1152  143.5136  154.8219 C.2     1  UNL1        0.2461
     18 O         138.3985  144.5740  154.0396 O.2     1  UNL1       -0.2701
     19 N         138.8866  142.3409  153.9150 N.am    1  UNL1       -0.2969
     20 C         138.9187  140.9462  153.3638 C.3     1  UNL1        0.1181
     21 C         139.2080  139.4806  153.2282 C.ar    1  UNL1        0.0163
     22 C         138.8379  138.4527  152.1388 C.ar    1  UNL1        0.0962
     23 N         139.1066  136.9870  151.9673 N.ar    1  UNL1       -0.2429
     24 C         139.8919  136.2419  153.0057 C.ar    1  UNL1        0.0949
     25 C         140.4084  136.9626  154.2156 C.ar    1  UNL1        0.0027
     26 C         139.7232  138.1029  153.5227 C.ar    1  UNL1       -0.0034
     27 C         141.1894  136.1831  155.2316 C.3     1  UNL1        0.0754
     28 C         141.9816  135.8488  156.4608 C.ar    1  UNL1        0.0862
     29 C         142.0925  134.4163  156.0300 C.ar    1  UNL1        0.1161
     30 N         142.8785  133.6782  157.0728 N.ar    1  UNL1       -0.2181
     31 C         143.2534  134.6545  158.1480 C.ar    1  UNL1        0.1966
     32 S         143.8376  135.2210  159.4081 S.2     1  UNL1       -0.0278
     33 C         143.6154  137.6209  160.0668 C.ar    1  UNL1        0.1350
     34 N         143.2641  136.6089  159.0169 N.ar    1  UNL1       -0.1569
     35 N         142.6990  135.9961  157.7698 N.ar    1  UNL1       -0.2085
     36 H         142.8044  143.6944  161.3022 H       1  UNL1        0.1739
     37 H         138.3668  142.7836  153.2056 H       1  UNL1        0.1501
     38 C         144.3748  143.0931  164.5989 C.3     1  UNL1        0.2543
     39 O         144.0096  143.1222  163.1444 O.3     1  UNL1       -0.4553
@<TRIPOS>BOND
     1    38    39    1
     2    39     1    1
     3     1     2   ar
     4     2     3   ar
     5     3     4   ar
     6     4     5   ar
     7     5     6   ar
     8     6     7    1
     9     7     8    1
    10     8     9    2
    11     8    10    2
    12     8    11    1
    13    11    12   ar
    14    12    13   ar
    15    13    14   ar
    16    14    15   ar
    17    15    16   ar
    18    15    17    1
    19    17    18    2
    20    17    19   am
    21    19    20    1
    22    20    21    1
    23    21    22   ar
    24    22    23   ar
    25    23    24   ar
    26    24    25   ar
    27    25    26   ar
    28    25    27    1
    29    27    28    1
    30    28    29   ar
    31    29    30   ar
    32    30    31   ar
    33    31    32   ar
    34    32    33   ar
    35    33    34   ar
    36    34    35   ar
    37     6     1   ar
    38    16    11   ar
    39    26    21   ar
    40    35    28   ar
    41    33     4    1
    42    35    31   ar
    43     7    36    1
    44    19    37    1
@<TRIPOS>MOLECULE
*****
 39 44 0 0 0
SMALL
GASTEIGER

@<TRIPOS>ATOM
      1 C         143.6106  142.9109  161.4815 C.ar    1  UNL1        0.2400
      2 N         144.3293  141.7480  162.0989 N.ar    1  UNL1       -0.2090
      3 C         144.2281  140.3872  161.4759 C.ar    1  UNL1        0.1042
      4 C         143.4940  139.8388  160.2347 C.ar    1  UNL1        0.0463
      5 C         143.2773  141.3085  160.4421 C.ar    1  UNL1        0.0242
      6 C         142.7907  142.7131  160.2412 C.ar    1  UNL1        0.1179
      7 N         142.0869  143.9003  159.6537 N.pl3   1  UNL1       -0.2104
      8 S         141.2423  144.7416  158.7433 S.O2    1  UNL1        0.0737
      9 O         141.8499  145.5080  159.8805 O.2     1  UNL1       -0.1499
     10 O         140.8858  146.1986  158.7466 O.2     1  UNL1       -0.1499
     11 C         140.1586  145.0693  157.3111 C.ar    1  UNL1        0.1253
     12 C         139.7356  146.5050  157.2120 C.ar    1  UNL1        0.0202
     13 C         138.8420  146.9479  156.0916 C.ar    1  UNL1        0.0015
     14 C         138.3713  145.9551  155.0704 C.ar    1  UNL1        0.0046
     15 C         138.7943  144.5194  155.1696 C.ar    1  UNL1        0.0547
     16 C         139.6879  144.0765  156.2899 C.ar    1  UNL1        0.0247
     17 C         138.3029  143.5569  154.1294 C.2     1  UNL1        0.2461
     18 O         137.4853  144.4949  153.2916 O.2     1  UNL1       -0.2701
     19 N         138.0806  142.2857  153.3649 N.am    1  UNL1       -0.2969
     20 C         138.1515  140.8433  152.9590 C.3     1  UNL1        0.1181
     21 C         138.5080  139.3863  152.9557 C.ar    1  UNL1        0.0163
     22 C         138.1260  138.2331  152.0047 C.ar    1  UNL1        0.0962
     23 N         138.4597  136.7712  151.9672 N.ar    1  UNL1       -0.2429
     24 C         139.3450  136.1767  153.0222 C.ar    1  UNL1        0.0949
     25 C         139.8964  137.0442  154.1147 C.ar    1  UNL1        0.0027
     26 C         139.1114  138.0724  153.3554 C.ar    1  UNL1       -0.0034
     27 C         140.7777  136.4129  155.1512 C.3     1  UNL1        0.0754
     28 C         141.6601  136.2470  156.3530 C.ar    1  UNL1        0.0862
     29 C         141.8190  134.7834  156.0652 C.ar    1  UNL1        0.1161
     30 N         142.7049  134.1964  157.1238 N.ar    1  UNL1       -0.2181
     31 C         143.0935  135.2971  158.0657 C.ar    1  UNL1        0.1966
     32 S         143.7235  136.0197  159.2194 S.2     1  UNL1       -0.0278
     33 C         143.4172  138.4632  159.6414 C.ar    1  UNL1        0.1350
     34 N         143.0555  137.3308  158.7266 N.ar    1  UNL1       -0.1569
     35 N         142.4478  136.5644  157.5894 N.ar    1  UNL1       -0.2085
     36 H         142.3679  144.5902  160.2975 H       1  UNL1        0.1739
     37 H         137.4959  142.6267  152.6499 H       1  UNL1        0.1501
     38 C         142.9307  144.5884  163.3453 C.3     1  UNL1        0.2543
     39 O         143.7119  144.2716  162.1046 O.3     1  UNL1       -0.4553
@<TRIPOS>BOND
     1    38    39    1
     2    39     1    1
     3     1     2   ar
     4     2     3   ar
     5     3     4   ar
     6     4     5   ar
     7     5     6   ar
     8     6     7    1
     9     7     8    1
    10     8     9    2
    11     8    10    2
    12     8    11    1
    13    11    12   ar
    14    12    13   ar
    15    13    14   ar
    16    14    15   ar
    17    15    16   ar
    18    15    17    1
    19    17    18    2
    20    17    19   am
    21    19    20    1
    22    20    21    1
    23    21    22   ar
    24    22    23   ar
    25    23    24   ar
    26    24    25   ar
    27    25    26   ar
    28    25    27    1
    29    27    28    1
    30    28    29   ar
    31    29    30   ar
    32    30    31   ar
    33    31    32   ar
    34    32    33   ar
    35    33    34   ar
    36    34    35   ar
    37     6     1   ar
    38    16    11   ar
    39    26    21   ar
    40    35    28   ar
    41    33     4    1
    42    35    31   ar
    43     7    36    1
    44    19    37    1
@<TRIPOS>MOLECULE
*****
 39 44 0 0 0
SMALL
GASTEIGER

@<TRIPOS>ATOM
      1 C         138.5372  143.0037  153.6725 C.ar    1  UNL1        0.2400
      2 N         138.1617  144.3909  154.1023 N.ar    1  UNL1       -0.2090
      3 C         138.5117  144.8698  155.4801 C.ar    1  UNL1        0.1042
      4 C         139.2338  144.2207  156.6791 C.ar    1  UNL1        0.0463
      5 C         139.1288  143.3075  155.4937 C.ar    1  UNL1        0.0242
      6 C         139.2627  142.0954  154.6203 C.ar    1  UNL1        0.1179
      7 N         139.6209  140.7156  154.1536 N.pl3   1  UNL1       -0.2104
      8 S         140.1647  139.3177  154.1442 S.O2    1  UNL1        0.0737
      9 O         139.5061  139.7168  152.8570 O.2     1  UNL1       -0.1499
     10 O         140.1793  138.2404  153.1006 O.2     1  UNL1       -0.1499
     11 C         141.0088  137.8566  154.8412 C.ar    1  UNL1        0.1253
     12 C         141.0833  136.7080  153.8794 C.ar    1  UNL1        0.0202
     13 C         141.7457  135.4267  154.2912 C.ar    1  UNL1        0.0015
     14 C         142.3336  135.2942  155.6648 C.ar    1  UNL1        0.0046
     15 C         142.2591  136.4428  156.6266 C.ar    1  UNL1        0.0547
     16 C         141.5966  137.7240  156.2148 C.ar    1  UNL1        0.0247
     17 C         142.8584  136.2716  157.9909 C.2     1  UNL1        0.2461
     18 O         143.3606  134.8638  157.8652 O.2     1  UNL1       -0.2701
     19 N         143.2925  136.5638  159.3967 N.am    1  UNL1       -0.2969
     20 C         143.5142  137.2879  160.6916 C.3     1  UNL1        0.1181
     21 C         143.4995  138.3653  161.7352 C.ar    1  UNL1        0.0163
     22 C         144.0444  138.4112  163.1779 C.ar    1  UNL1        0.0962
     23 N         144.0498  139.4631  164.2472 N.ar    1  UNL1       -0.2429
     24 C         143.4240  140.8011  163.9862 C.ar    1  UNL1        0.0949
     25 C         142.7928  141.0872  162.6558 C.ar    1  UNL1        0.0027
     26 C         143.2501  139.6791  162.4145 C.ar    1  UNL1       -0.0034
     27 C         142.1775  142.4369  162.4331 C.3     1  UNL1        0.0754
     28 C         141.4705  143.5819  161.7704 C.ar    1  UNL1        0.0862
     29 C         141.6226  144.4221  163.0036 C.ar    1  UNL1        0.1161
     30 N         140.9948  145.7576  162.7350 N.ar    1  UNL1       -0.2181
     31 C         140.4547  145.7428  161.3358 C.ar    1  UNL1        0.1966
     32 S         139.7860  146.1884  160.0691 S.2     1  UNL1       -0.0278
     33 C         139.5662  144.7359  158.0481 C.ar    1  UNL1        0.1350
     34 N         140.0900  144.7973  159.4523 N.ar    1  UNL1       -0.1569
     35 N         140.7486  144.3982  160.7396 N.ar    1  UNL1       -0.2085
     36 H         139.2510  140.7518  153.2420 H       1  UNL1        0.1739
     37 H         143.7159  135.7030  159.6178 H       1  UNL1        0.1501
     38 C         136.8296  141.9472  152.0239 C.3     1  UNL1        0.2543
     39 O         138.1871  142.5250  152.2947 O.3     1  UNL1       -0.4553
@<TRIPOS>BOND
     1    38    39    1
     2    39     1    1
     3     1     2   ar
     4     2     3   ar
     5     3     4   ar
     6     4     5   ar
     7     5     6   ar
     8     6     7    1
     9     7     8    1
    10     8     9    2
    11     8    10    2
    12     8    11    1
    13    11    12   ar
    14    12    13   ar
    15    13    14   ar
    16    14    15   ar
    17    15    16   ar
    18    15    17    1
    19    17    18    2
    20    17    19   am
    21    19    20    1
    22    20    21    1
    23    21    22   ar
    24    22    23   ar
    25    23    24   ar
    26    24    25   ar
    27    25    26   ar
    28    25    27    1
    29    27    28    1
    30    28    29   ar
    31    29    30   ar
    32    30    31   ar
    33    31    32   ar
    34    32    33   ar
    35    33    34   ar
    36    34    35   ar
    37     6     1   ar
    38    16    11   ar
    39    26    21   ar
    40    35    28   ar
    41    33     4    1
    42    35    31   ar
    43     7    36    1
    44    19    37    1
@<TRIPOS>MOLECULE
*****
 39 44 0 0 0
SMALL
GASTEIGER

@<TRIPOS>ATOM
      1 C         141.6203  135.7810  154.4980 C.ar    1  UNL1        0.2400
      2 N         142.3918  134.8834  155.4194 N.ar    1  UNL1       -0.2090
      3 C         142.8053  135.3764  156.7745 C.ar    1  UNL1        0.1042
      4 C         142.6117  136.7108  157.5242 C.ar    1  UNL1        0.0463
      5 C         141.9959  136.7124  156.1565 C.ar    1  UNL1        0.0242
      6 C         141.2621  137.1716  154.9315 C.ar    1  UNL1        0.1179
      7 N         140.4900  138.0388  153.9819 N.pl3   1  UNL1       -0.2104
      8 S         139.7631  139.2201  153.4107 S.O2    1  UNL1        0.0737
      9 O         139.8163  138.0405  152.4858 O.2     1  UNL1       -0.1499
     10 O         139.0790  139.4536  152.0964 O.2     1  UNL1       -0.1499
     11 C         139.0880  140.9163  153.4099 C.ar    1  UNL1        0.1253
     12 C         138.3767  141.2639  152.1359 C.ar    1  UNL1        0.0202
     13 C         137.7609  142.6211  151.9671 C.ar    1  UNL1        0.0015
     14 C         137.8564  143.6308  153.0722 C.ar    1  UNL1        0.0046
     15 C         138.5677  143.2833  154.3462 C.ar    1  UNL1        0.0547
     16 C         139.1836  141.9260  154.5151 C.ar    1  UNL1        0.0247
     17 C         138.6421  144.3197  155.4280 C.2     1  UNL1        0.2461
     18 O         137.8962  145.4334  154.7547 O.2     1  UNL1       -0.2701
     19 N         138.9620  144.9895  156.7314 N.am    1  UNL1       -0.2969
     20 C         139.4928  145.2202  158.1153 C.3     1  UNL1        0.1181
     21 C         140.1769  144.9866  159.4297 C.ar    1  UNL1        0.0163
     22 C         140.3734  145.8897  160.6650 C.ar    1  UNL1        0.0962
     23 N         141.0474  145.6947  161.9908 N.ar    1  UNL1       -0.2429
     24 C         141.7108  144.3876  162.3097 C.ar    1  UNL1        0.0949
     25 C         141.7001  143.2758  161.3029 C.ar    1  UNL1        0.0027
     26 C         140.9403  144.3142  160.5320 C.ar    1  UNL1       -0.0034
     27 C         142.3741  141.9839  161.6588 C.3     1  UNL1        0.0754
     28 C         142.8893  140.5785  161.5612 C.ar    1  UNL1        0.0862
     29 C         143.4730  140.6702  162.9399 C.ar    1  UNL1        0.1161
     30 N         144.1342  139.3603  163.2514 N.ar    1  UNL1       -0.2181
     31 C         143.9591  138.4591  162.0652 C.ar    1  UNL1        0.1966
     32 S         144.0388  137.2534  161.1764 S.2     1  UNL1       -0.0278
     33 C         143.0430  137.1673  158.8865 C.ar    1  UNL1        0.1350
     34 N         143.2429  138.0322  160.0957 N.ar    1  UNL1       -0.1569
     35 N         143.1897  139.2119  161.0206 N.ar    1  UNL1       -0.2085
     36 H         140.3997  137.4127  153.2276 H       1  UNL1        0.1739
     37 H         138.5415  145.8652  156.5711 H       1  UNL1        0.1501
     38 C         141.3269  133.8312  152.8062 C.3     1  UNL1        0.2543
     39 O         141.2069  135.2879  153.1430 O.3     1  UNL1       -0.4553
@<TRIPOS>BOND
     1    38    39    1
     2    39     1    1
     3     1     2   ar
     4     2     3   ar
     5     3     4   ar
     6     4     5   ar
     7     5     6   ar
     8     6     7    1
     9     7     8    1
    10     8     9    2
    11     8    10    2
    12     8    11    1
    13    11    12   ar
    14    12    13   ar
    15    13    14   ar
    16    14    15   ar
    17    15    16   ar
    18    15    17    1
    19    17    18    2
    20    17    19   am
    21    19    20    1
    22    20    21    1
    23    21    22   ar
    24    22    23   ar
    25    23    24   ar
    26    24    25   ar
    27    25    26   ar
    28    25    27    1
    29    27    28    1
    30    28    29   ar
    31    29    30   ar
    32    30    31   ar
    33    31    32   ar
    34    32    33   ar
    35    33    34   ar
    36    34    35   ar
    37     6     1   ar
    38    16    11   ar
    39    26    21   ar
    40    35    28   ar
    41    33     4    1
    42    35    31   ar
    43     7    36    1
    44    19    37    1
@<TRIPOS>MOLECULE
*****
 39 44 0 0 0
SMALL
GASTEIGER

@<TRIPOS>ATOM
      1 C         139.8628  145.5015  162.3443 C.ar    1  UNL1        0.2400
      2 N         139.4861  146.8045  161.7038 N.ar    1  UNL1       -0.2090
      3 C         139.6017  146.9706  160.2174 C.ar    1  UNL1        0.1042
      4 C         140.0575  146.0378  159.0763 C.ar    1  UNL1        0.0463
      5 C         140.1253  145.3883  160.4267 C.ar    1  UNL1        0.0242
      6 C         140.3550  144.3646  161.4987 C.ar    1  UNL1        0.1179
      7 N         140.7219  143.0775  162.1761 N.pl3   1  UNL1       -0.2104
      8 S         141.1861  141.6667  162.3856 S.O2    1  UNL1        0.0737
      9 O         140.7960  142.3671  163.6533 O.2     1  UNL1       -0.1499
     10 O         141.3369  140.8185  163.6135 O.2     1  UNL1       -0.1499
     11 C         141.8125  140.0290  161.8771 C.ar    1  UNL1        0.1253
     12 C         142.0034  139.0898  163.0310 C.ar    1  UNL1        0.0202
     13 C         142.5129  137.6997  162.7902 C.ar    1  UNL1        0.0015
     14 C         142.8314  137.2488  161.3956 C.ar    1  UNL1        0.0046
     15 C         142.6405  138.1879  160.2416 C.ar    1  UNL1        0.0547
     16 C         142.1310  139.5780  160.4824 C.ar    1  UNL1        0.0247
     17 C         142.9701  137.7000  158.8620 C.2     1  UNL1        0.2461
     18 O         143.4144  136.3060  159.1926 O.2     1  UNL1       -0.2701
     19 N         143.1534  137.6710  157.3736 N.am    1  UNL1       -0.2969
     20 C         143.1706  138.1041  155.9375 C.3     1  UNL1        0.1181
     21 C         143.0198  138.9523  154.7095 C.ar    1  UNL1        0.0163
     22 C         143.2926  138.6659  153.2183 C.ar    1  UNL1        0.0962
     23 N         143.1554  139.4823  151.9675 N.ar    1  UNL1       -0.2429
     24 C         142.6571  140.8951  152.0449 C.ar    1  UNL1        0.0949
     25 C         142.2960  141.4913  153.3732 C.ar    1  UNL1        0.0027
     26 C         142.7173  140.1236  153.8227 C.ar    1  UNL1       -0.0034
     27 C         141.8015  142.9069  153.4095 C.3     1  UNL1        0.0754
     28 C         141.2874  144.2173  153.9279 C.ar    1  UNL1        0.0862
     29 C         141.2535  144.7820  152.5387 C.ar    1  UNL1        0.1161
     30 N         140.7546  146.1939  152.6244 N.ar    1  UNL1       -0.2181
     31 C         140.4800  146.5019  154.0664 C.ar    1  UNL1        0.1966
     32 S         140.0785  147.2445  155.3063 S.2     1  UNL1       -0.0278
     33 C         140.1592  146.2426  157.5938 C.ar    1  UNL1        0.1350
     34 N         140.4192  145.9807  156.1399 N.ar    1  UNL1       -0.1569
     35 N         140.8093  145.2802  154.8721 N.ar    1  UNL1       -0.2085
     36 H         140.5278  143.3245  163.1092 H       1  UNL1        0.1739
     37 H         143.4846  136.7498  157.2690 H       1  UNL1        0.1501
     38 C         138.5089  144.7319  164.4239 C.3     1  UNL1        0.2543
     39 O         139.7473  145.3355  163.8307 O.3     1  UNL1       -0.4553
@<TRIPOS>BOND
     1    38    39    1
     2    39     1    1
     3     1     2   ar
     4     2     3   ar
     5     3     4   ar
     6     4     5   ar
     7     5     6   ar
     8     6     7    1
     9     7     8    1
    10     8     9    2
    11     8    10    2
    12     8    11    1
    13    11    12   ar
    14    12    13   ar
    15    13    14   ar
    16    14    15   ar
    17    15    16   ar
    18    15    17    1
    19    17    18    2
    20    17    19   am
    21    19    20    1
    22    20    21    1
    23    21    22   ar
    24    22    23   ar
    25    23    24   ar
    26    24    25   ar
    27    25    26   ar
    28    25    27    1
    29    27    28    1
    30    28    29   ar
    31    29    30   ar
    32    30    31   ar
    33    31    32   ar
    34    32    33   ar
    35    33    34   ar
    36    34    35   ar
    37     6     1   ar
    38    16    11   ar
    39    26    21   ar
    40    35    28   ar
    41    33     4    1
    42    35    31   ar
    43     7    36    1
    44    19    37    1
