@<TRIPOS>MOLECULE
*****
 31 34 0 0 0
SMALL
GASTEIGER

@<TRIPOS>ATOM
      1 C         140.1175  141.5395  163.9736 C.3     1  UNL1        0.1753
      2 C         139.6876  140.1421  163.6381 C.ar    1  UNL1        0.0089
      3 C         139.5333  139.4266  162.3288 C.ar    1  UNL1       -0.0021
      4 C         139.0755  137.9984  162.3042 C.ar    1  UNL1       -0.0003
      5 C         138.7721  137.2857  163.5888 C.ar    1  UNL1        0.0001
      6 C         138.9265  138.0013  164.8980 C.ar    1  UNL1        0.0043
      7 C         139.3842  139.4295  164.9226 C.ar    1  UNL1        0.0517
      8 C         139.6266  140.3865  166.0520 C.2     1  UNL1        0.2496
      9 O         139.4472  140.0912  167.5117 O.2     1  UNL1       -0.2699
     10 N         140.0798  141.6906  165.4655 N.am    1  UNL1       -0.2620
     11 N         139.4668  143.4620  162.3515 N.am    1  UNL1       -0.3059
     12 C         140.5153  142.5997  162.9898 C.2     1  UNL1        0.2448
     13 O         141.9614  142.7978  162.6443 O.2     1  UNL1       -0.2729
     14 H         138.5176  143.3320  162.5782 H       1  UNL1        0.1494
     15 C         139.9806  145.5157  162.4856 C.3     1  UNL1        0.0196
     16 C         139.8646  144.5222  161.3678 C.3     1  UNL1        0.0569
     17 C         139.7485  143.5286  160.2500 C.3     1  UNL1        0.0196
     18 C         140.2623  145.5824  160.3841 C.3     1  UNL1        0.0196
     19 C         140.4332  142.9283  166.2356 C.3     1  UNL1        0.1212
     20 C         141.1079  142.8141  167.5704 C.ar    1  UNL1       -0.0023
     21 C         140.3641  143.1804  168.8205 C.ar    1  UNL1       -0.0026
     22 C         141.0387  143.0661  170.1553 C.ar    1  UNL1       -0.0003
     23 C         142.4572  142.5856  170.2401 C.ar    1  UNL1       -0.0000
     24 C         143.2009  142.2193  168.9900 C.ar    1  UNL1       -0.0003
     25 C         142.5263  142.3336  167.6551 C.ar    1  UNL1       -0.0024
     26 C         143.2700  141.9673  166.4051 C.ar    1  UNL1       -0.0003
     27 C         143.2089  140.5635  165.8801 C.ar    1  UNL1       -0.0000
     28 C         143.9526  140.1973  164.6300 C.ar    1  UNL1       -0.0000
     29 C         144.7576  141.2348  163.9050 C.ar    1  UNL1       -0.0000
     30 C         144.8188  142.6385  164.4301 C.ar    1  UNL1       -0.0000
     31 C         144.0750  143.0048  165.6802 C.ar    1  UNL1       -0.0000
@<TRIPOS>BOND
     1    15    16    1
     2    16    17    1
     3    16    18    1
     4    16    11    1
     5    11    12   am
     6    12    13    2
     7    12     1    1
     8     1     2    1
     9     2     3   ar
    10     3     4   ar
    11     4     5   ar
    12     5     6   ar
    13     6     7   ar
    14     7     8    1
    15     8     9    2
    16     8    10   am
    17    10    19    1
    18    19    20    1
    19    20    21   ar
    20    21    22   ar
    21    22    23   ar
    22    23    24   ar
    23    24    25   ar
    24    25    26    1
    25    26    27   ar
    26    27    28   ar
    27    28    29   ar
    28    29    30   ar
    29    30    31   ar
    30    10     1    1
    31    25    20   ar
    32    31    26   ar
    33     7     2   ar
    34    11    14    1
@<TRIPOS>MOLECULE
*****
 31 34 0 0 0
SMALL
GASTEIGER

@<TRIPOS>ATOM
      1 C         141.7485  143.0883  163.5111 C.3     1  UNL1        0.1753
      2 C         141.6338  143.6816  162.1382 C.ar    1  UNL1        0.0089
      3 C         142.5225  143.6010  160.9325 C.ar    1  UNL1       -0.0021
      4 C         142.1401  144.3150  159.6699 C.ar    1  UNL1       -0.0003
      5 C         140.8691  145.1095  159.6131 C.ar    1  UNL1        0.0001
      6 C         139.9804  145.1900  160.8187 C.ar    1  UNL1        0.0043
      7 C         140.3627  144.4761  162.0813 C.ar    1  UNL1        0.0517
      8 C         139.6919  144.3738  163.4190 C.2     1  UNL1        0.2496
      9 O         138.3928  145.0164  163.8053 O.2     1  UNL1       -0.2699
     10 N         140.5484  143.5161  164.3027 N.am    1  UNL1       -0.2620
     11 N         142.8746  140.7536  163.6880 N.am    1  UNL1       -0.3059
     12 C         142.8670  142.2197  164.0055 C.2     1  UNL1        0.2448
     13 O         143.9778  142.8170  164.8173 O.2     1  UNL1       -0.2729
     14 H         142.1455  140.3615  163.1552 H       1  UNL1        0.1494
     15 C         144.8121  140.2563  162.9818 C.3     1  UNL1        0.0196
     16 C         143.9931  139.8850  164.1825 C.3     1  UNL1        0.0569
     17 C         143.1741  139.5138  165.3831 C.3     1  UNL1        0.0196
     18 C         145.1116  139.0164  164.6768 C.3     1  UNL1        0.0196
     19 C         140.2560  143.1504  165.7278 C.3     1  UNL1        0.1212
     20 C         139.6726  141.8074  166.0529 C.ar    1  UNL1       -0.0023
     21 C         138.7481  141.1360  165.0809 C.ar    1  UNL1       -0.0026
     22 C         138.1647  139.7930  165.4060 C.ar    1  UNL1       -0.0003
     23 C         138.5058  139.1212  166.7031 C.ar    1  UNL1       -0.0000
     24 C         139.4302  139.7924  167.6750 C.ar    1  UNL1       -0.0003
     25 C         140.0137  141.1356  167.3499 C.ar    1  UNL1       -0.0024
     26 C         140.9381  141.8068  168.3219 C.ar    1  UNL1       -0.0003
     27 C         140.4170  142.8743  169.2378 C.ar    1  UNL1       -0.0000
     28 C         141.3415  143.5455  170.2098 C.ar    1  UNL1       -0.0000
     29 C         142.7872  143.1494  170.2658 C.ar    1  UNL1       -0.0000
     30 C         143.3083  142.0819  169.3498 C.ar    1  UNL1       -0.0000
     31 C         142.3838  141.4107  168.3779 C.ar    1  UNL1       -0.0000
@<TRIPOS>BOND
     1    15    16    1
     2    16    17    1
     3    16    18    1
     4    16    11    1
     5    11    12   am
     6    12    13    2
     7    12     1    1
     8     1     2    1
     9     2     3   ar
    10     3     4   ar
    11     4     5   ar
    12     5     6   ar
    13     6     7   ar
    14     7     8    1
    15     8     9    2
    16     8    10   am
    17    10    19    1
    18    19    20    1
    19    20    21   ar
    20    21    22   ar
    21    22    23   ar
    22    23    24   ar
    23    24    25   ar
    24    25    26    1
    25    26    27   ar
    26    27    28   ar
    27    28    29   ar
    28    29    30   ar
    29    30    31   ar
    30    10     1    1
    31    25    20   ar
    32    31    26   ar
    33     7     2   ar
    34    11    14    1
@<TRIPOS>MOLECULE
*****
 31 34 0 0 0
SMALL
GASTEIGER

@<TRIPOS>ATOM
      1 C         141.1125  141.7779  166.5913 C.3     1  UNL1        0.1753
      2 C         141.0926  142.0925  168.0578 C.ar    1  UNL1        0.0089
      3 C         140.4874  143.2249  168.8333 C.ar    1  UNL1       -0.0021
      4 C         140.6336  143.2747  170.3253 C.ar    1  UNL1       -0.0003
      5 C         141.3848  142.1920  171.0418 C.ar    1  UNL1        0.0001
      6 C         141.9899  141.0596  170.2663 C.ar    1  UNL1        0.0043
      7 C         141.8438  141.0098  168.7743 C.ar    1  UNL1        0.0517
      8 C         142.3280  140.0261  167.7506 C.2     1  UNL1        0.2496
      9 O         143.1244  138.7855  168.0276 O.2     1  UNL1       -0.2699
     10 N         141.8760  140.5008  166.4014 N.am    1  UNL1       -0.2620
     11 N         138.9967  142.5373  165.2884 N.am    1  UNL1       -0.3059
     12 C         140.4799  142.5967  165.5053 C.2     1  UNL1        0.2448
     13 O         141.3302  143.4750  164.6362 O.2     1  UNL1       -0.2729
     14 H         138.4386  141.9608  165.8588 H       1  UNL1        0.1494
     15 C         138.3262  144.5427  165.1193 C.3     1  UNL1        0.0196
     16 C         138.3642  143.3561  164.2024 C.3     1  UNL1        0.0569
     17 C         138.4021  142.1694  163.2856 C.3     1  UNL1        0.0196
     18 C         137.7316  144.1748  163.1165 C.3     1  UNL1        0.0196
     19 C         142.1410  139.8183  165.0923 C.3     1  UNL1        0.1212
     20 C         141.0284  139.1120  164.3760 C.ar    1  UNL1       -0.0023
     21 C         140.0130  138.3291  165.1545 C.ar    1  UNL1       -0.0026
     22 C         138.9003  137.6228  164.4382 C.ar    1  UNL1       -0.0003
     23 C         138.8031  137.6994  162.9433 C.ar    1  UNL1       -0.0000
     24 C         139.8184  138.4822  162.1648 C.ar    1  UNL1       -0.0003
     25 C         140.9311  139.1885  162.8811 C.ar    1  UNL1       -0.0024
     26 C         141.9464  139.9714  162.1025 C.ar    1  UNL1       -0.0003
     27 C         143.2108  139.3094  161.6408 C.ar    1  UNL1       -0.0000
     28 C         144.2261  140.0922  160.8622 C.ar    1  UNL1       -0.0000
     29 C         143.9772  141.5371  160.5453 C.ar    1  UNL1       -0.0000
     30 C         142.7128  142.1991  161.0071 C.ar    1  UNL1       -0.0000
     31 C         141.6974  141.4162  161.7857 C.ar    1  UNL1       -0.0000
@<TRIPOS>BOND
     1    15    16    1
     2    16    17    1
     3    16    18    1
     4    16    11    1
     5    11    12   am
     6    12    13    2
     7    12     1    1
     8     1     2    1
     9     2     3   ar
    10     3     4   ar
    11     4     5   ar
    12     5     6   ar
    13     6     7   ar
    14     7     8    1
    15     8     9    2
    16     8    10   am
    17    10    19    1
    18    19    20    1
    19    20    21   ar
    20    21    22   ar
    21    22    23   ar
    22    23    24   ar
    23    24    25   ar
    24    25    26    1
    25    26    27   ar
    26    27    28   ar
    27    28    29   ar
    28    29    30   ar
    29    30    31   ar
    30    10     1    1
    31    25    20   ar
    32    31    26   ar
    33     7     2   ar
    34    11    14    1
@<TRIPOS>MOLECULE
*****
 31 34 0 0 0
SMALL
GASTEIGER

@<TRIPOS>ATOM
      1 C         141.4656  142.2722  163.9033 C.3     1  UNL1        0.1753
      2 C         140.1052  142.8316  163.6094 C.ar    1  UNL1        0.0089
      3 C         139.3299  142.9666  162.3324 C.ar    1  UNL1       -0.0021
      4 C         137.9615  143.5806  162.3472 C.ar    1  UNL1       -0.0003
      5 C         137.3683  144.0598  163.6390 C.ar    1  UNL1        0.0001
      6 C         138.1436  143.9248  164.9159 C.ar    1  UNL1        0.0043
      7 C         139.5120  143.3107  164.9011 C.ar    1  UNL1        0.0517
      8 C         140.5059  143.0474  165.9933 C.2     1  UNL1        0.2496
      9 O         140.3242  143.3695  167.4471 O.2     1  UNL1       -0.2699
     10 N         141.7133  142.4056  165.3767 N.am    1  UNL1       -0.2620
     11 N         142.2467  140.2586  162.4591 N.am    1  UNL1       -0.3059
     12 C         142.4122  141.6829  162.8999 C.2     1  UNL1        0.2448
     13 O         143.5241  142.5177  162.3373 O.2     1  UNL1       -0.2729
     14 H         141.5169  139.7107  162.8283 H       1  UNL1        0.1494
     15 C         142.2408  140.0201  160.3513 C.3     1  UNL1        0.0196
     16 C         143.1933  139.6693  161.4557 C.3     1  UNL1        0.0569
     17 C         144.1457  139.3186  162.5602 C.3     1  UNL1        0.0196
     18 C         144.1398  139.0801  160.4524 C.3     1  UNL1        0.0196
     19 C         142.9510  141.9731  166.1054 C.3     1  UNL1        0.1212
     20 C         142.8535  141.4653  167.5134 C.ar    1  UNL1       -0.0023
     21 C         143.4566  142.2532  168.6384 C.ar    1  UNL1       -0.0026
     22 C         143.3591  141.7453  170.0464 C.ar    1  UNL1       -0.0003
     23 C         142.6585  140.4496  170.3295 C.ar    1  UNL1       -0.0000
     24 C         142.0553  139.6617  169.2046 C.ar    1  UNL1       -0.0003
     25 C         142.1528  140.1696  167.7965 C.ar    1  UNL1       -0.0024
     26 C         141.5496  139.3817  166.6716 C.ar    1  UNL1       -0.0003
     27 C         140.0875  139.5132  166.3634 C.ar    1  UNL1       -0.0000
     28 C         139.4844  138.7253  165.2385 C.ar    1  UNL1       -0.0000
     29 C         140.3433  137.8059  164.4218 C.ar    1  UNL1       -0.0000
     30 C         141.8054  137.6744  164.7300 C.ar    1  UNL1       -0.0000
     31 C         142.4086  138.4623  165.8550 C.ar    1  UNL1       -0.0000
@<TRIPOS>BOND
     1    15    16    1
     2    16    17    1
     3    16    18    1
     4    16    11    1
     5    11    12   am
     6    12    13    2
     7    12     1    1
     8     1     2    1
     9     2     3   ar
    10     3     4   ar
    11     4     5   ar
    12     5     6   ar
    13     6     7   ar
    14     7     8    1
    15     8     9    2
    16     8    10   am
    17    10    19    1
    18    19    20    1
    19    20    21   ar
    20    21    22   ar
    21    22    23   ar
    22    23    24   ar
    23    24    25   ar
    24    25    26    1
    25    26    27   ar
    26    27    28   ar
    27    28    29   ar
    28    29    30   ar
    29    30    31   ar
    30    10     1    1
    31    25    20   ar
    32    31    26   ar
    33     7     2   ar
    34    11    14    1
@<TRIPOS>MOLECULE
*****
 31 34 0 0 0
SMALL
GASTEIGER

@<TRIPOS>ATOM
      1 C         141.4043  141.1142  166.3180 C.3     1  UNL1        0.1753
      2 C         141.8024  140.9550  167.7554 C.ar    1  UNL1        0.0089
      3 C         143.0172  141.3982  168.5155 C.ar    1  UNL1       -0.0021
      4 C         143.1411  141.0887  169.9779 C.ar    1  UNL1       -0.0003
      5 C         142.0502  140.3361  170.6803 C.ar    1  UNL1        0.0001
      6 C         140.8353  139.8930  169.9203 C.ar    1  UNL1        0.0043
      7 C         140.7114  140.2024  168.4579 C.ar    1  UNL1        0.0517
      8 C         139.6392  139.8965  167.4545 C.2     1  UNL1        0.2496
      9 O         138.3627  139.1569  167.7260 O.2     1  UNL1       -0.2699
     10 N         140.0674  140.4600  166.1320 N.am    1  UNL1       -0.2620
     11 N         142.2031  143.3039  165.1701 N.am    1  UNL1       -0.3059
     12 C         142.2031  141.8062  165.2534 C.2     1  UNL1        0.2448
     13 O         143.0018  141.0005  164.2722 O.2     1  UNL1       -0.2729
     14 H         141.6788  143.8328  165.8141 H       1  UNL1        0.1494
     15 C         141.7818  144.0653  163.2355 C.3     1  UNL1        0.0196
     16 C         143.0018  143.9959  164.1056 C.3     1  UNL1        0.0569
     17 C         144.2217  143.9264  164.9757 C.3     1  UNL1        0.0196
     18 C         143.8004  144.6878  163.0411 C.3     1  UNL1        0.0196
     19 C         139.2944  140.3829  164.8488 C.3     1  UNL1        0.1212
     20 C         138.8037  141.6390  164.1922 C.ar    1  UNL1       -0.0023
     21 C         138.2430  142.7520  165.0271 C.ar    1  UNL1       -0.0026
     22 C         137.7522  144.0081  164.3705 C.ar    1  UNL1       -0.0003
     23 C         137.8221  144.1514  162.8790 C.ar    1  UNL1       -0.0000
     24 C         138.3827  143.0385  162.0441 C.ar    1  UNL1       -0.0003
     25 C         138.8735  141.7822  162.7007 C.ar    1  UNL1       -0.0024
     26 C         139.4341  140.6693  161.8658 C.ar    1  UNL1       -0.0003
     27 C         138.5406  139.5585  161.3991 C.ar    1  UNL1       -0.0000
     28 C         139.1012  138.4455  160.5642 C.ar    1  UNL1       -0.0000
     29 C         140.5553  138.4434  160.1959 C.ar    1  UNL1       -0.0000
     30 C         141.4488  139.5543  160.6626 C.ar    1  UNL1       -0.0000
     31 C         140.8881  140.6672  161.4975 C.ar    1  UNL1       -0.0000
@<TRIPOS>BOND
     1    15    16    1
     2    16    17    1
     3    16    18    1
     4    16    11    1
     5    11    12   am
     6    12    13    2
     7    12     1    1
     8     1     2    1
     9     2     3   ar
    10     3     4   ar
    11     4     5   ar
    12     5     6   ar
    13     6     7   ar
    14     7     8    1
    15     8     9    2
    16     8    10   am
    17    10    19    1
    18    19    20    1
    19    20    21   ar
    20    21    22   ar
    21    22    23   ar
    22    23    24   ar
    23    24    25   ar
    24    25    26    1
    25    26    27   ar
    26    27    28   ar
    27    28    29   ar
    28    29    30   ar
    29    30    31   ar
    30    10     1    1
    31    25    20   ar
    32    31    26   ar
    33     7     2   ar
    34    11    14    1
@<TRIPOS>MOLECULE
*****
 31 34 0 0 0
SMALL
GASTEIGER

@<TRIPOS>ATOM
      1 C         141.9481  141.2469  164.3608 C.3     1  UNL1        0.1753
      2 C         142.2284  141.2529  165.8343 C.ar    1  UNL1        0.0089
      3 C         142.4122  142.3715  166.8165 C.ar    1  UNL1       -0.0021
      4 C         142.6874  142.0654  168.2589 C.ar    1  UNL1       -0.0003
      5 C         142.7788  140.6407  168.7191 C.ar    1  UNL1        0.0001
      6 C         142.5950  139.5220  167.7369 C.ar    1  UNL1        0.0043
      7 C         142.3198  139.8281  166.2945 C.ar    1  UNL1        0.0517
      8 C         142.0959  138.9417  165.1053 C.2     1  UNL1        0.2496
      9 O         142.1009  137.4417  165.1104 O.2     1  UNL1       -0.2699
     10 N         141.8662  139.8186  163.9102 N.am    1  UNL1       -0.2620
     11 N         140.6853  143.4419  163.7794 N.am    1  UNL1       -0.3059
     12 C         141.7793  142.4570  163.4905 C.2     1  UNL1        0.2448
     13 O         142.7043  142.6823  162.3316 O.2     1  UNL1       -0.2729
     14 H         140.0781  143.2940  164.5401 H       1  UNL1        0.1494
     15 C         141.5751  145.3657  163.6966 C.3     1  UNL1        0.0196
     16 C         140.5165  144.6519  162.9092 C.3     1  UNL1        0.0569
     17 C         139.4579  143.9381  162.1219 C.3     1  UNL1        0.0196
     18 C         140.3477  145.8619  162.0390 C.3     1  UNL1        0.0196
     19 C         141.6012  139.3494  162.5103 C.3     1  UNL1        0.1212
     20 C         140.4723  139.9436  161.7213 C.ar    1  UNL1       -0.0023
     21 C         140.7341  140.5398  160.3699 C.ar    1  UNL1       -0.0026
     22 C         139.6053  141.1340  159.5808 C.ar    1  UNL1       -0.0003
     23 C         138.2147  141.1321  160.1431 C.ar    1  UNL1       -0.0000
     24 C         137.9528  140.5359  161.4944 C.ar    1  UNL1       -0.0003
     25 C         139.0817  139.9417  162.2835 C.ar    1  UNL1       -0.0024
     26 C         138.8199  139.3455  163.6348 C.ar    1  UNL1       -0.0003
     27 C         138.8601  137.8574  163.8186 C.ar    1  UNL1       -0.0000
     28 C         138.5982  137.2613  165.1699 C.ar    1  UNL1       -0.0000
     29 C         138.2962  138.1533  166.3375 C.ar    1  UNL1       -0.0000
     30 C         138.2561  139.6414  166.1536 C.ar    1  UNL1       -0.0000
     31 C         138.5179  140.2376  164.8023 C.ar    1  UNL1       -0.0000
@<TRIPOS>BOND
     1    15    16    1
     2    16    17    1
     3    16    18    1
     4    16    11    1
     5    11    12   am
     6    12    13    2
     7    12     1    1
     8     1     2    1
     9     2     3   ar
    10     3     4   ar
    11     4     5   ar
    12     5     6   ar
    13     6     7   ar
    14     7     8    1
    15     8     9    2
    16     8    10   am
    17    10    19    1
    18    19    20    1
    19    20    21   ar
    20    21    22   ar
    21    22    23   ar
    22    23    24   ar
    23    24    25   ar
    24    25    26    1
    25    26    27   ar
    26    27    28   ar
    27    28    29   ar
    28    29    30   ar
    29    30    31   ar
    30    10     1    1
    31    25    20   ar
    32    31    26   ar
    33     7     2   ar
    34    11    14    1
@<TRIPOS>MOLECULE
*****
 31 34 0 0 0
SMALL
GASTEIGER

@<TRIPOS>ATOM
      1 C         139.0006  141.6494  164.2284 C.3     1  UNL1        0.1753
      2 C         139.5117  141.8163  165.6287 C.ar    1  UNL1        0.0089
      3 C         140.1334  142.9826  166.3380 C.ar    1  UNL1       -0.0021
      4 C         140.5551  142.8507  167.7714 C.ar    1  UNL1       -0.0003
      5 C         140.3551  141.5524  168.4956 C.ar    1  UNL1        0.0001
      6 C         139.7334  140.3861  167.7863 C.ar    1  UNL1        0.0043
      7 C         139.3117  140.5180  166.3529 C.ar    1  UNL1        0.0517
      8 C         138.6769  139.5488  165.4001 C.2     1  UNL1        0.2496
      9 O         138.3005  138.1295  165.7066 O.2     1  UNL1       -0.2699
     10 N         138.4846  140.2481  164.0871 N.am    1  UNL1       -0.2620
     11 N         140.3028  143.2854  162.6862 N.am    1  UNL1       -0.3059
     12 C         139.0047  142.6996  163.1574 C.2     1  UNL1        0.2448
     13 O         137.7108  143.1642  162.5575 O.2     1  UNL1       -0.2729
     14 H         141.1521  142.9805  163.0800 H       1  UNL1        0.1494
     15 C         140.2053  145.4043  162.6629 C.3     1  UNL1        0.0196
     16 C         140.3069  144.3356  161.6152 C.3     1  UNL1        0.0569
     17 C         140.4085  143.2668  160.5676 C.3     1  UNL1        0.0196
     18 C         140.3110  145.3857  160.5443 C.3     1  UNL1        0.0196
     19 C         137.8822  139.6508  162.8500 C.3     1  UNL1        0.1212
     20 C         138.5973  139.7664  161.5366 C.ar    1  UNL1       -0.0023
     21 C         137.8676  140.2714  160.3272 C.ar    1  UNL1       -0.0026
     22 C         138.5828  140.3869  159.0137 C.ar    1  UNL1       -0.0003
     23 C         140.0276  139.9976  158.9096 C.ar    1  UNL1       -0.0000
     24 C         140.7573  139.4926  160.1189 C.ar    1  UNL1       -0.0003
     25 C         140.0422  139.3770  161.4325 C.ar    1  UNL1       -0.0024
     26 C         140.7719  138.8721  162.6418 C.ar    1  UNL1       -0.0003
     27 C         141.7320  139.7679  163.3668 C.ar    1  UNL1       -0.0000
     28 C         142.4617  139.2630  164.5761 C.ar    1  UNL1       -0.0000
     29 C         142.2313  137.8621  165.0605 C.ar    1  UNL1       -0.0000
     30 C         141.2711  136.9663  164.3355 C.ar    1  UNL1       -0.0000
     31 C         140.5414  137.4713  163.1261 C.ar    1  UNL1       -0.0000
@<TRIPOS>BOND
     1    15    16    1
     2    16    17    1
     3    16    18    1
     4    16    11    1
     5    11    12   am
     6    12    13    2
     7    12     1    1
     8     1     2    1
     9     2     3   ar
    10     3     4   ar
    11     4     5   ar
    12     5     6   ar
    13     6     7   ar
    14     7     8    1
    15     8     9    2
    16     8    10   am
    17    10    19    1
    18    19    20    1
    19    20    21   ar
    20    21    22   ar
    21    22    23   ar
    22    23    24   ar
    23    24    25   ar
    24    25    26    1
    25    26    27   ar
    26    27    28   ar
    27    28    29   ar
    28    29    30   ar
    29    30    31   ar
    30    10     1    1
    31    25    20   ar
    32    31    26   ar
    33     7     2   ar
    34    11    14    1
@<TRIPOS>MOLECULE
*****
 31 34 0 0 0
SMALL
GASTEIGER

@<TRIPOS>ATOM
      1 C         141.0427  141.5081  166.6721 C.3     1  UNL1        0.1753
      2 C         141.6700  141.1773  167.9939 C.ar    1  UNL1        0.0089
      3 C         142.9744  141.5809  168.6148 C.ar    1  UNL1       -0.0021
      4 C         143.3404  141.0825  169.9814 C.ar    1  UNL1       -0.0003
      5 C         142.4020  140.1806  170.7270 C.ar    1  UNL1        0.0001
      6 C         141.0977  139.7770  170.1060 C.ar    1  UNL1        0.0043
      7 C         140.7316  140.2754  168.7395 C.ar    1  UNL1        0.0517
      8 C         139.5244  140.0488  167.8785 C.2     1  UNL1        0.2496
      9 O         138.3340  139.2078  168.2330 O.2     1  UNL1       -0.2699
     10 N         139.7167  140.8106  166.6007 N.am    1  UNL1       -0.2620
     11 N         142.9745  142.0440  165.0193 N.am    1  UNL1       -0.3059
     12 C         141.6372  142.3829  165.6084 C.2     1  UNL1        0.2448
     13 O         140.8945  143.5965  165.1336 O.2     1  UNL1       -0.2729
     14 H         143.4620  141.2474  165.3309 H       1  UNL1        0.1494
     15 C         144.1443  143.8136  165.0132 C.3     1  UNL1        0.0196
     16 C         143.5689  142.9187  163.9556 C.3     1  UNL1        0.0569
     17 C         142.9936  142.0238  162.8982 C.3     1  UNL1        0.0196
     18 C         144.1634  143.7934  162.8920 C.3     1  UNL1        0.0196
     19 C         138.7523  140.8654  165.4532 C.3     1  UNL1        0.1212
     20 C         138.9449  139.9664  164.2680 C.ar    1  UNL1       -0.0023
     21 C         139.0442  138.4821  164.4608 C.ar    1  UNL1       -0.0026
     22 C         139.2369  137.5831  163.2756 C.ar    1  UNL1       -0.0003
     23 C         139.3303  138.1684  161.8976 C.ar    1  UNL1       -0.0000
     24 C         139.2311  139.6526  161.7049 C.ar    1  UNL1       -0.0003
     25 C         139.0384  140.5516  162.8901 C.ar    1  UNL1       -0.0024
     26 C         138.9391  142.0359  162.6973 C.ar    1  UNL1       -0.0003
     27 C         139.9666  142.7557  161.8750 C.ar    1  UNL1       -0.0000
     28 C         139.8674  144.2400  161.6823 C.ar    1  UNL1       -0.0000
     29 C         138.7406  145.0044  162.3117 C.ar    1  UNL1       -0.0000
     30 C         137.7131  144.2845  163.1340 C.ar    1  UNL1       -0.0000
     31 C         137.8124  142.8002  163.3267 C.ar    1  UNL1       -0.0000
@<TRIPOS>BOND
     1    15    16    1
     2    16    17    1
     3    16    18    1
     4    16    11    1
     5    11    12   am
     6    12    13    2
     7    12     1    1
     8     1     2    1
     9     2     3   ar
    10     3     4   ar
    11     4     5   ar
    12     5     6   ar
    13     6     7   ar
    14     7     8    1
    15     8     9    2
    16     8    10   am
    17    10    19    1
    18    19    20    1
    19    20    21   ar
    20    21    22   ar
    21    22    23   ar
    22    23    24   ar
    23    24    25   ar
    24    25    26    1
    25    26    27   ar
    26    27    28   ar
    27    28    29   ar
    28    29    30   ar
    29    30    31   ar
    30    10     1    1
    31    25    20   ar
    32    31    26   ar
    33     7     2   ar
    34    11    14    1
@<TRIPOS>MOLECULE
*****
 31 34 0 0 0
SMALL
GASTEIGER

@<TRIPOS>ATOM
      1 C         141.9272  140.3761  162.1605 C.3     1  UNL1        0.1753
      2 C         141.3460  141.1640  161.0241 C.ar    1  UNL1        0.0089
      3 C         140.0250  141.0824  160.3184 C.ar    1  UNL1       -0.0021
      4 C         139.7173  142.0234  159.1916 C.ar    1  UNL1       -0.0003
      5 C         140.7307  143.0461  158.7705 C.ar    1  UNL1        0.0001
      6 C         142.0517  143.1277  159.4763 C.ar    1  UNL1        0.0043
      7 C         142.3594  142.1866  160.6031 C.ar    1  UNL1        0.0517
      8 C         143.5669  142.0307  161.4792 C.2     1  UNL1        0.2496
      9 O         144.8212  142.8500  161.4057 O.2     1  UNL1       -0.2699
     10 N         143.2998  140.9117  162.4418 N.am    1  UNL1       -0.2620
     11 N         139.9695  139.4940  163.6232 N.am    1  UNL1       -0.3059
     12 C         141.2540  139.2502  162.8879 C.2     1  UNL1        0.2448
     13 O         141.8652  137.8804  162.8801 O.2     1  UNL1       -0.2729
     14 H         139.5683  140.3930  163.6284 H       1  UNL1        0.1494
     15 C         139.9013  138.8393  165.6398 C.3     1  UNL1        0.0196
     16 C         139.2963  138.3681  164.3506 C.3     1  UNL1        0.0569
     17 C         138.6913  137.8969  163.0614 C.3     1  UNL1        0.0196
     18 C         138.6231  137.2422  165.0780 C.3     1  UNL1        0.0196
     19 C         144.2402  140.4155  163.4999 C.3     1  UNL1        0.1212
     20 C         143.7392  140.1663  164.8915 C.ar    1  UNL1       -0.0023
     21 C         143.9135  138.8158  165.5208 C.ar    1  UNL1       -0.0026
     22 C         143.4125  138.5665  166.9125 C.ar    1  UNL1       -0.0003
     23 C         142.7371  139.6677  167.6749 C.ar    1  UNL1       -0.0000
     24 C         142.5628  141.0181  167.0457 C.ar    1  UNL1       -0.0003
     25 C         143.0638  141.2674  165.6540 C.ar    1  UNL1       -0.0024
     26 C         142.8894  142.6178  165.0248 C.ar    1  UNL1       -0.0003
     27 C         141.5381  143.0492  164.5372 C.ar    1  UNL1       -0.0000
     28 C         141.3638  144.3996  163.9080 C.ar    1  UNL1       -0.0000
     29 C         142.5408  145.3187  163.7663 C.ar    1  UNL1       -0.0000
     30 C         143.8921  144.8873  164.2539 C.ar    1  UNL1       -0.0000
     31 C         144.0664  143.5368  164.8832 C.ar    1  UNL1       -0.0000
@<TRIPOS>BOND
     1    15    16    1
     2    16    17    1
     3    16    18    1
     4    16    11    1
     5    11    12   am
     6    12    13    2
     7    12     1    1
     8     1     2    1
     9     2     3   ar
    10     3     4   ar
    11     4     5   ar
    12     5     6   ar
    13     6     7   ar
    14     7     8    1
    15     8     9    2
    16     8    10   am
    17    10    19    1
    18    19    20    1
    19    20    21   ar
    20    21    22   ar
    21    22    23   ar
    22    23    24   ar
    23    24    25   ar
    24    25    26    1
    25    26    27   ar
    26    27    28   ar
    27    28    29   ar
    28    29    30   ar
    29    30    31   ar
    30    10     1    1
    31    25    20   ar
    32    31    26   ar
    33     7     2   ar
    34    11    14    1
