@<TRIPOS>MOLECULE
*****
 35 39 0 0 0
SMALL
GASTEIGER

@<TRIPOS>ATOM
      1 C         141.2863  137.8780  162.0546 C.3     1  UNL1        0.0769
      2 C         141.8638  137.6936  163.4266 C.3     1  UNL1        0.0104
      3 C         140.9536  137.5277  164.6073 C.3     1  UNL1        0.0162
      4 C         139.4659  137.5463  164.4160 C.3     1  UNL1        0.0543
      5 C         138.8885  137.7307  163.0440 C.3     1  UNL1        0.0162
      6 C         139.7987  137.8966  161.8632 C.3     1  UNL1        0.0104
      7 N         141.6463  138.5279  159.5650 N.am    1  UNL1       -0.2827
      8 C         142.1964  138.0439  160.8739 C.2     1  UNL1        0.2257
      9 O         143.6567  137.7258  161.0020 O.2     1  UNL1       -0.2748
     10 H         140.6879  138.7367  159.4809 H       1  UNL1        0.1549
     11 C         144.1417  142.2499  159.1531 C.ar    1  UNL1        0.2251
     12 C         145.0518  142.4158  157.9724 C.ar    1  UNL1        0.0593
     13 C         145.1302  141.3410  156.9290 C.ar    1  UNL1        0.0255
     14 C         144.2984  140.1004  157.0663 C.ar    1  UNL1        0.1004
     15 N         144.3768  139.0256  156.0228 N.ar    1  UNL1       -0.2422
     16 C         143.5450  137.7849  156.1601 C.ar    1  UNL1        0.1002
     17 C         142.6348  137.6190  157.3409 C.ar    1  UNL1        0.0369
     18 C         142.5565  138.6938  158.3843 C.ar    1  UNL1        0.0713
     19 C         143.3883  139.9345  158.2469 C.ar    1  UNL1        0.1154
     20 N         143.3099  141.0093  159.2904 N.ar    1  UNL1       -0.2089
     21 C         144.4709  143.0294  161.6095 C.3     1  UNL1        0.2542
     22 O         144.0633  143.3247  160.1965 O.3     1  UNL1       -0.4561
     23 N         138.5558  137.3804  165.5967 N.3     1  UNL1       -0.2935
     24 H         139.0353  136.7652  166.2540 H       1  UNL1        0.1236
     25 C         138.1104  138.5827  166.3751 C.3     1  UNL1        0.1152
     26 C         138.5710  139.9515  165.9697 C.ar    1  UNL1        0.0782
     27 C         137.8471  140.6965  164.8877 C.ar    1  UNL1        0.0562
     28 C         138.3078  142.0653  164.4823 C.ar    1  UNL1        0.1752
     29 C         139.4923  142.6890  165.1590 C.ar    1  UNL1        0.1914
     30 C         140.2162  141.9439  166.2411 C.ar    1  UNL1        0.1384
     31 N         139.7556  140.5752  166.6465 N.ar    1  UNL1       -0.2434
     32 O         139.9530  144.0578  164.7537 O.3     1  UNL1       -0.4668
     33 C         139.2291  144.8029  163.6716 C.3     1  UNL1        0.2527
     34 C         138.0446  144.1791  162.9949 C.3     1  UNL1        0.2526
     35 O         137.5840  142.8104  163.4002 O.3     1  UNL1       -0.4683
@<TRIPOS>BOND
     1    21    22    1
     2    22    11    1
     3    11    12   ar
     4    12    13   ar
     5    13    14   ar
     6    14    15   ar
     7    15    16   ar
     8    16    17   ar
     9    17    18   ar
    10    18     7    1
    11     7     8   am
    12     8     9    2
    13     1     8    1
    14     1     2    1
    15     2     3    1
    16     3     4    1
    17     4    23    1
    18    23    25    1
    19    25    26    1
    20    26    27   ar
    21    27    28   ar
    22    28    29   ar
    23    29    30   ar
    24    30    31   ar
    25    29    32    1
    26    32    33    1
    27    33    34    1
    28    34    35    1
    29     4     5    1
    30     5     6    1
    31    18    19   ar
    32    19    20   ar
    33    20    11   ar
    34    19    14   ar
    35     6     1    1
    36    31    26   ar
    37    35    28    1
    38     7    10    1
    39    23    24    1
@<TRIPOS>MOLECULE
*****
 35 39 0 0 0
SMALL
GASTEIGER

@<TRIPOS>ATOM
      1 C         141.3646  138.0016  161.8146 C.3     1  UNL1        0.0769
      2 C         141.9648  137.7714  163.1699 C.3     1  UNL1        0.0104
      3 C         141.0744  137.5519  164.3570 C.3     1  UNL1        0.0162
      4 C         139.5839  137.5627  164.1887 C.3     1  UNL1        0.0543
      5 C         138.9838  137.7929  162.8334 C.3     1  UNL1        0.0162
      6 C         139.8742  138.0124  161.6464 C.3     1  UNL1        0.0104
      7 N         141.6548  138.4551  159.2729 N.am    1  UNL1       -0.2827
      8 C         142.2550  138.2211  160.6276 C.2     1  UNL1        0.2257
      9 O         143.7455  138.2065  160.7951 O.2     1  UNL1       -0.2748
     10 H         140.6765  138.4646  159.1629 H       1  UNL1        0.1549
     11 C         142.9698  134.9549  156.7690 C.ar    1  UNL1        0.2251
     12 C         143.8601  135.1743  155.5820 C.ar    1  UNL1        0.0593
     13 C         144.3121  136.5605  155.2296 C.ar    1  UNL1        0.0255
     14 C         143.8738  137.7272  156.0642 C.ar    1  UNL1        0.1004
     15 N         144.3258  139.1134  155.7117 N.ar    1  UNL1       -0.2422
     16 C         143.8875  140.2801  156.5463 C.ar    1  UNL1        0.1002
     17 C         142.9971  140.0607  157.7335 C.ar    1  UNL1        0.0369
     18 C         142.5451  138.6745  158.0859 C.ar    1  UNL1        0.0713
     19 C         142.9835  137.5078  157.2512 C.ar    1  UNL1        0.1154
     20 N         142.5314  136.1216  157.6036 N.ar    1  UNL1       -0.2089
     21 C         143.4831  132.4232  157.0462 C.3     1  UNL1        0.2542
     22 O         142.5177  133.5687  157.1215 O.3     1  UNL1       -0.4561
     23 N         138.6935  137.3432  165.3758 N.3     1  UNL1       -0.2935
     24 H         139.2085  136.7474  166.0239 H       1  UNL1        0.1236
     25 C         138.1966  138.5163  166.1676 C.3     1  UNL1        0.1152
     26 C         138.6451  139.9035  165.8149 C.ar    1  UNL1        0.0782
     27 C         137.8809  140.7042  164.8026 C.ar    1  UNL1        0.0562
     28 C         138.3295  142.0914  164.4499 C.ar    1  UNL1        0.1752
     29 C         139.5423  142.6779  165.1095 C.ar    1  UNL1        0.1914
     30 C         140.3065  141.8772  166.1218 C.ar    1  UNL1        0.1384
     31 N         139.8580  140.4900  166.4745 N.ar    1  UNL1       -0.2434
     32 O         139.9909  144.0652  164.7568 O.3     1  UNL1       -0.4668
     33 C         139.2267  144.8659  163.7445 C.3     1  UNL1        0.2527
     34 C         138.0138  144.2793  163.0849 C.3     1  UNL1        0.2526
     35 O         137.5653  142.8922  163.4376 O.3     1  UNL1       -0.4683
@<TRIPOS>BOND
     1    21    22    1
     2    22    11    1
     3    11    12   ar
     4    12    13   ar
     5    13    14   ar
     6    14    15   ar
     7    15    16   ar
     8    16    17   ar
     9    17    18   ar
    10    18     7    1
    11     7     8   am
    12     8     9    2
    13     1     8    1
    14     1     2    1
    15     2     3    1
    16     3     4    1
    17     4    23    1
    18    23    25    1
    19    25    26    1
    20    26    27   ar
    21    27    28   ar
    22    28    29   ar
    23    29    30   ar
    24    30    31   ar
    25    29    32    1
    26    32    33    1
    27    33    34    1
    28    34    35    1
    29     4     5    1
    30     5     6    1
    31    18    19   ar
    32    19    20   ar
    33    20    11   ar
    34    19    14   ar
    35     6     1    1
    36    31    26   ar
    37    35    28    1
    38     7    10    1
    39    23    24    1
@<TRIPOS>MOLECULE
*****
 35 39 0 0 0
SMALL
GASTEIGER

@<TRIPOS>ATOM
      1 C         141.1952  137.8792  162.1725 C.3     1  UNL1        0.0769
      2 C         139.7113  138.0407  162.0245 C.3     1  UNL1        0.0104
      3 C         138.8218  137.9369  163.2278 C.3     1  UNL1        0.0162
      4 C         139.4163  137.6716  164.5792 C.3     1  UNL1        0.0543
      5 C         140.9002  137.5100  164.7272 C.3     1  UNL1        0.0162
      6 C         141.7897  137.6139  163.5238 C.3     1  UNL1        0.0104
      7 N         141.5188  138.4331  159.6548 N.am    1  UNL1       -0.2827
      8 C         142.0846  137.9830  160.9691 C.2     1  UNL1        0.2257
      9 O         143.5399  137.6367  161.0800 O.2     1  UNL1       -0.2748
     10 H         140.5637  138.6604  159.5820 H       1  UNL1        0.1549
     11 C         144.0540  142.0999  159.0404 C.ar    1  UNL1        0.2251
     12 C         144.9435  142.2037  157.8371 C.ar    1  UNL1        0.0593
     13 C         144.9879  141.0852  156.8386 C.ar    1  UNL1        0.0255
     14 C         144.1428  139.8630  157.0433 C.ar    1  UNL1        0.1004
     15 N         144.1872  138.7446  156.0448 N.ar    1  UNL1       -0.2422
     16 C         143.3422  137.5223  156.2495 C.ar    1  UNL1        0.1002
     17 C         142.4527  137.4185  157.4529 C.ar    1  UNL1        0.0369
     18 C         142.4083  138.5369  158.4515 C.ar    1  UNL1        0.0713
     19 C         143.2534  139.7592  158.2467 C.ar    1  UNL1        0.1154
     20 N         143.2090  140.8776  159.2452 N.ar    1  UNL1       -0.2089
     21 C         144.5264  143.0023  161.4305 C.3     1  UNL1        0.2542
     22 O         144.0096  143.2183  160.0390 O.3     1  UNL1       -0.4561
     23 N         138.5268  137.5678  165.7826 N.3     1  UNL1       -0.2935
     24 H         139.0441  137.0412  166.4865 H       1  UNL1        0.1236
     25 C         138.0254  138.8118  166.4541 C.3     1  UNL1        0.1152
     26 C         138.8881  139.5246  167.4529 C.ar    1  UNL1        0.0782
     27 C         140.1388  140.2198  167.0029 C.ar    1  UNL1        0.0562
     28 C         141.0015  140.9326  168.0017 C.ar    1  UNL1        0.1752
     29 C         140.6134  140.9504  169.4505 C.ar    1  UNL1        0.1914
     30 C         139.3627  140.2553  169.9006 C.ar    1  UNL1        0.1384
     31 N         138.5000  139.5424  168.9018 N.ar    1  UNL1       -0.2434
     32 O         141.4761  141.6633  170.4494 O.3     1  UNL1       -0.4668
     33 C         142.7268  142.3584  169.9994 C.3     1  UNL1        0.2527
     34 C         143.1149  142.3406  168.5505 C.3     1  UNL1        0.2526
     35 O         142.2522  141.6278  167.5517 O.3     1  UNL1       -0.4683
@<TRIPOS>BOND
     1    21    22    1
     2    22    11    1
     3    11    12   ar
     4    12    13   ar
     5    13    14   ar
     6    14    15   ar
     7    15    16   ar
     8    16    17   ar
     9    17    18   ar
    10    18     7    1
    11     7     8   am
    12     8     9    2
    13     1     8    1
    14     1     2    1
    15     2     3    1
    16     3     4    1
    17     4    23    1
    18    23    25    1
    19    25    26    1
    20    26    27   ar
    21    27    28   ar
    22    28    29   ar
    23    29    30   ar
    24    30    31   ar
    25    29    32    1
    26    32    33    1
    27    33    34    1
    28    34    35    1
    29     4     5    1
    30     5     6    1
    31    18    19   ar
    32    19    20   ar
    33    20    11   ar
    34    19    14   ar
    35     6     1    1
    36    31    26   ar
    37    35    28    1
    38     7    10    1
    39    23    24    1
@<TRIPOS>MOLECULE
*****
 35 39 0 0 0
SMALL
GASTEIGER

@<TRIPOS>ATOM
      1 C         141.4049  138.0793  161.6928 C.3     1  UNL1        0.0769
      2 C         139.9094  138.0722  161.5769 C.3     1  UNL1        0.0104
      3 C         139.0634  137.8718  162.7992 C.3     1  UNL1        0.0162
      4 C         139.7128  137.6785  164.1375 C.3     1  UNL1        0.0543
      5 C         141.2083  137.6857  164.2534 C.3     1  UNL1        0.0162
      6 C         142.0543  137.8861  163.0310 C.3     1  UNL1        0.0104
      7 N         141.6014  138.4829  159.1338 N.am    1  UNL1       -0.2827
      8 C         142.2509  138.2797  160.4706 C.2     1  UNL1        0.2257
      9 O         143.7466  138.2770  160.5850 O.2     1  UNL1       -0.2748
     10 H         140.6197  138.4848  159.0587 H       1  UNL1        0.1549
     11 C         143.0577  134.9236  156.7972 C.ar    1  UNL1        0.2251
     12 C         143.9038  135.1240  155.5749 C.ar    1  UNL1        0.0593
     13 C         144.2644  136.5108  155.1315 C.ar    1  UNL1        0.0255
     14 C         143.7789  137.6973  155.9103 C.ar    1  UNL1        0.1004
     15 N         144.1395  139.0841  155.4669 N.ar    1  UNL1       -0.2422
     16 C         143.6541  140.2706  156.2458 C.ar    1  UNL1        0.1002
     17 C         142.8080  140.0702  157.4681 C.ar    1  UNL1        0.0369
     18 C         142.4474  138.6833  157.9115 C.ar    1  UNL1        0.0713
     19 C         142.9329  137.4969  157.1326 C.ar    1  UNL1        0.1154
     20 N         142.5723  136.1100  157.5760 N.ar    1  UNL1       -0.2089
     21 C         143.7337  132.4526  157.2300 C.3     1  UNL1        0.2542
     22 O         142.6971  133.5367  157.2406 O.3     1  UNL1       -0.4561
     23 N         138.8668  137.4781  165.3598 N.3     1  UNL1       -0.2935
     24 H         139.4527  137.0077  166.0495 H       1  UNL1        0.1236
     25 C         138.2516  138.6603  166.0482 C.3     1  UNL1        0.1152
     26 C         139.0355  139.4211  167.0763 C.ar    1  UNL1        0.0782
     27 C         140.3094  140.1115  166.6884 C.ar    1  UNL1        0.0562
     28 C         141.0932  140.8723  167.7165 C.ar    1  UNL1        0.1752
     29 C         140.6031  140.9426  169.1324 C.ar    1  UNL1        0.1914
     30 C         139.3292  140.2521  169.5203 C.ar    1  UNL1        0.1384
     31 N         138.5454  139.4914  168.4923 N.ar    1  UNL1       -0.2434
     32 O         141.3869  141.7033  170.1605 O.3     1  UNL1       -0.4668
     33 C         142.6608  142.3938  169.7727 C.3     1  UNL1        0.2527
     34 C         143.1509  142.3235  168.3567 C.3     1  UNL1        0.2526
     35 O         142.3671  141.5627  167.3286 O.3     1  UNL1       -0.4683
@<TRIPOS>BOND
     1    21    22    1
     2    22    11    1
     3    11    12   ar
     4    12    13   ar
     5    13    14   ar
     6    14    15   ar
     7    15    16   ar
     8    16    17   ar
     9    17    18   ar
    10    18     7    1
    11     7     8   am
    12     8     9    2
    13     1     8    1
    14     1     2    1
    15     2     3    1
    16     3     4    1
    17     4    23    1
    18    23    25    1
    19    25    26    1
    20    26    27   ar
    21    27    28   ar
    22    28    29   ar
    23    29    30   ar
    24    30    31   ar
    25    29    32    1
    26    32    33    1
    27    33    34    1
    28    34    35    1
    29     4     5    1
    30     5     6    1
    31    18    19   ar
    32    19    20   ar
    33    20    11   ar
    34    19    14   ar
    35     6     1    1
    36    31    26   ar
    37    35    28    1
    38     7    10    1
    39    23    24    1
@<TRIPOS>MOLECULE
*****
 35 39 0 0 0
SMALL
GASTEIGER

@<TRIPOS>ATOM
      1 C         142.9552  139.6993  159.5271 C.3     1  UNL1        0.0769
      2 C         143.5187  140.9851  158.9988 C.3     1  UNL1        0.0104
      3 C         144.2892  141.8959  159.9080 C.3     1  UNL1        0.0162
      4 C         144.4962  141.5210  161.3456 C.3     1  UNL1        0.0543
      5 C         143.9326  140.2352  161.8739 C.3     1  UNL1        0.0162
      6 C         143.1621  139.3243  160.9646 C.3     1  UNL1        0.0104
      7 N         142.7910  138.3319  157.3240 N.am    1  UNL1       -0.2827
      8 C         142.1847  138.7885  158.6179 C.2     1  UNL1        0.2257
      9 O         140.8078  138.3342  159.0024 O.2     1  UNL1       -0.2748
     10 H         143.6947  138.6301  157.0716 H       1  UNL1        0.1549
     11 C         143.6018  133.9057  157.3592 C.ar    1  UNL1        0.2251
     12 C         142.8313  132.9949  156.4500 C.ar    1  UNL1        0.0593
     13 C         141.7906  133.5595  155.5290 C.ar    1  UNL1        0.0255
     14 C         141.5203  135.0348  155.5173 C.ar    1  UNL1        0.1004
     15 N         140.4796  135.5994  154.5964 N.ar    1  UNL1       -0.2422
     16 C         140.2093  137.0748  154.5846 C.ar    1  UNL1        0.1002
     17 C         140.9798  137.9857  155.4939 C.ar    1  UNL1        0.0369
     18 C         142.0206  137.4211  156.4148 C.ar    1  UNL1        0.0713
     19 C         142.2908  135.9456  156.4265 C.ar    1  UNL1        0.1154
     20 N         143.3315  135.3811  157.3475 N.ar    1  UNL1       -0.2089
     21 C         145.3169  132.0440  157.9445 C.3     1  UNL1        0.2542
     22 O         144.6425  133.3412  158.2801 O.3     1  UNL1       -0.4561
     23 N         145.2666  142.4318  162.2548 N.3     1  UNL1       -0.2935
     24 H         146.0055  142.8534  161.6921 H       1  UNL1        0.1236
     25 C         144.5661  143.5545  162.9611 C.3     1  UNL1        0.1152
     26 C         143.1026  143.7884  162.7305 C.ar    1  UNL1        0.0782
     27 C         142.0953  143.2596  163.7082 C.ar    1  UNL1        0.0562
     28 C         140.6317  143.4935  163.4776 C.ar    1  UNL1        0.1752
     29 C         140.1754  144.2563  162.2693 C.ar    1  UNL1        0.1914
     30 C         141.1826  144.7851  161.2916 C.ar    1  UNL1        0.1384
     31 N         142.6462  144.5512  161.5222 N.ar    1  UNL1       -0.2434
     32 O         138.7117  144.4902  162.0386 O.3     1  UNL1       -0.4668
     33 C         137.7045  143.9614  163.0163 C.3     1  UNL1        0.2527
     34 C         138.1609  143.1986  164.2247 C.3     1  UNL1        0.2526
     35 O         139.6245  142.9647  164.4552 O.3     1  UNL1       -0.4683
@<TRIPOS>BOND
     1    21    22    1
     2    22    11    1
     3    11    12   ar
     4    12    13   ar
     5    13    14   ar
     6    14    15   ar
     7    15    16   ar
     8    16    17   ar
     9    17    18   ar
    10    18     7    1
    11     7     8   am
    12     8     9    2
    13     1     8    1
    14     1     2    1
    15     2     3    1
    16     3     4    1
    17     4    23    1
    18    23    25    1
    19    25    26    1
    20    26    27   ar
    21    27    28   ar
    22    28    29   ar
    23    29    30   ar
    24    30    31   ar
    25    29    32    1
    26    32    33    1
    27    33    34    1
    28    34    35    1
    29     4     5    1
    30     5     6    1
    31    18    19   ar
    32    19    20   ar
    33    20    11   ar
    34    19    14   ar
    35     6     1    1
    36    31    26   ar
    37    35    28    1
    38     7    10    1
    39    23    24    1
@<TRIPOS>MOLECULE
*****
 35 39 0 0 0
SMALL
GASTEIGER

@<TRIPOS>ATOM
      1 C         143.2289  139.4648  160.5094 C.3     1  UNL1        0.0769
      2 C         143.4995  138.7457  161.7976 C.3     1  UNL1        0.0104
      3 C         144.3030  139.4127  162.8744 C.3     1  UNL1        0.0162
      4 C         144.8359  140.7988  162.6630 C.3     1  UNL1        0.0543
      5 C         144.5653  141.5180  161.3747 C.3     1  UNL1        0.0162
      6 C         143.7617  140.8509  160.2979 C.3     1  UNL1        0.0104
      7 N         143.0505  138.5096  158.0998 N.am    1  UNL1       -0.2827
      8 C         142.4254  138.7979  159.4326 C.2     1  UNL1        0.2257
      9 O         140.9967  138.4191  159.6884 O.2     1  UNL1       -0.2748
     10 H         143.9882  138.7582  157.9319 H       1  UNL1        0.1549
     11 C         143.4828  134.0884  157.3816 C.ar    1  UNL1        0.2251
     12 C         142.6794  133.4214  156.3048 C.ar    1  UNL1        0.0593
     13 C         141.7318  134.2282  155.4674 C.ar    1  UNL1        0.0255
     14 C         141.5876  135.7019  155.7068 C.ar    1  UNL1        0.1004
     15 N         140.6400  136.5086  154.8694 N.ar    1  UNL1       -0.2422
     16 C         140.4959  137.9823  155.1088 C.ar    1  UNL1        0.1002
     17 C         141.2994  138.6494  156.1857 C.ar    1  UNL1        0.0369
     18 C         142.2470  137.8426  157.0230 C.ar    1  UNL1        0.0713
     19 C         142.3911  136.3688  156.7836 C.ar    1  UNL1        0.1154
     20 N         143.3387  135.5621  157.6210 N.ar    1  UNL1       -0.2089
     21 C         145.1621  132.1197  157.6151 C.3     1  UNL1        0.2542
     22 O         144.4305  133.2816  158.2189 O.3     1  UNL1       -0.4561
     23 N         145.6394  141.4658  163.7397 N.3     1  UNL1       -0.2935
     24 H         146.5455  141.6954  163.3315 H       1  UNL1        0.1236
     25 C         145.1284  142.7167  164.3910 C.3     1  UNL1        0.1152
     26 C         143.6661  142.8623  164.6914 C.ar    1  UNL1        0.0782
     27 C         142.8156  143.7720  163.8553 C.ar    1  UNL1        0.0562
     28 C         141.3531  143.9176  164.1558 C.ar    1  UNL1        0.1752
     29 C         140.7413  143.1534  165.2923 C.ar    1  UNL1        0.1914
     30 C         141.5918  142.2437  166.1284 C.ar    1  UNL1        0.1384
     31 N         143.0541  142.0981  165.8280 N.ar    1  UNL1       -0.2434
     32 O         139.2789  143.2990  165.5927 O.3     1  UNL1       -0.4668
     33 C         138.4284  144.2087  164.7566 C.3     1  UNL1        0.2527
     34 C         139.0403  144.9729  163.6201 C.3     1  UNL1        0.2526
     35 O         140.5026  144.8273  163.3197 O.3     1  UNL1       -0.4683
@<TRIPOS>BOND
     1    21    22    1
     2    22    11    1
     3    11    12   ar
     4    12    13   ar
     5    13    14   ar
     6    14    15   ar
     7    15    16   ar
     8    16    17   ar
     9    17    18   ar
    10    18     7    1
    11     7     8   am
    12     8     9    2
    13     1     8    1
    14     1     2    1
    15     2     3    1
    16     3     4    1
    17     4    23    1
    18    23    25    1
    19    25    26    1
    20    26    27   ar
    21    27    28   ar
    22    28    29   ar
    23    29    30   ar
    24    30    31   ar
    25    29    32    1
    26    32    33    1
    27    33    34    1
    28    34    35    1
    29     4     5    1
    30     5     6    1
    31    18    19   ar
    32    19    20   ar
    33    20    11   ar
    34    19    14   ar
    35     6     1    1
    36    31    26   ar
    37    35    28    1
    38     7    10    1
    39    23    24    1
@<TRIPOS>MOLECULE
*****
 35 39 0 0 0
SMALL
GASTEIGER

@<TRIPOS>ATOM
      1 C         138.3357  140.4319  160.7410 C.3     1  UNL1        0.0769
      2 C         139.0004  139.1039  160.9517 C.3     1  UNL1        0.0104
      3 C         139.1057  138.5286  162.3330 C.3     1  UNL1        0.0162
      4 C         138.5463  139.2815  163.5036 C.3     1  UNL1        0.0543
      5 C         137.8816  140.6096  163.2929 C.3     1  UNL1        0.0162
      6 C         137.7763  141.1848  161.9115 C.3     1  UNL1        0.0104
      7 N         138.0537  140.0977  158.1799 N.am    1  UNL1       -0.2827
      8 C         138.2304  141.0072  159.3597 C.2     1  UNL1        0.2257
      9 O         138.3018  142.4918  159.1581 O.2     1  UNL1       -0.2748
     10 H         138.0069  139.1233  158.3123 H       1  UNL1        0.1549
     11 C         134.0374  140.4167  156.1757 C.ar    1  UNL1        0.2251
     12 C         133.9321  140.9919  154.7944 C.ar    1  UNL1        0.0593
     13 C         135.1656  141.4608  154.0812 C.ar    1  UNL1        0.0255
     14 C         136.5043  141.3545  154.7492 C.ar    1  UNL1        0.1004
     15 N         137.7378  141.8234  154.0360 N.ar    1  UNL1       -0.2422
     16 C         139.0766  141.7171  154.7041 C.ar    1  UNL1        0.1002
     17 C         139.1819  141.1418  156.0854 C.ar    1  UNL1        0.0369
     18 C         137.9484  140.6729  156.7987 C.ar    1  UNL1        0.0713
     19 C         136.6096  140.7793  156.1305 C.ar    1  UNL1        0.1154
     20 N         135.3762  140.3103  156.8437 N.ar    1  UNL1       -0.2089
     21 C         132.4326  138.4946  156.8688 C.3     1  UNL1        0.2542
     22 O         132.8039  139.9477  156.8889 O.3     1  UNL1       -0.4561
     23 N         138.6516  138.7063  164.8849 N.3     1  UNL1       -0.2935
     24 H         138.8952  137.7218  164.7761 H       1  UNL1        0.1236
     25 C         139.6251  139.2873  165.8671 C.3     1  UNL1        0.1152
     26 C         141.0487  139.5266  165.4599 C.ar    1  UNL1        0.0782
     27 C         141.4540  140.8559  164.8953 C.ar    1  UNL1        0.0562
     28 C         142.8778  141.0952  164.4881 C.ar    1  UNL1        0.1752
     29 C         143.8961  140.0052  164.6454 C.ar    1  UNL1        0.1914
     30 C         143.4909  138.6759  165.2100 C.ar    1  UNL1        0.1384
     31 N         142.0672  138.4366  165.6172 N.ar    1  UNL1       -0.2434
     32 O         145.3199  140.2445  164.2382 O.3     1  UNL1       -0.4668
     33 C         145.7252  141.5738  163.6736 C.3     1  UNL1        0.2527
     34 C         144.7067  142.6638  163.5163 C.3     1  UNL1        0.2526
     35 O         143.2830  142.4245  163.9235 O.3     1  UNL1       -0.4683
@<TRIPOS>BOND
     1    21    22    1
     2    22    11    1
     3    11    12   ar
     4    12    13   ar
     5    13    14   ar
     6    14    15   ar
     7    15    16   ar
     8    16    17   ar
     9    17    18   ar
    10    18     7    1
    11     7     8   am
    12     8     9    2
    13     1     8    1
    14     1     2    1
    15     2     3    1
    16     3     4    1
    17     4    23    1
    18    23    25    1
    19    25    26    1
    20    26    27   ar
    21    27    28   ar
    22    28    29   ar
    23    29    30   ar
    24    30    31   ar
    25    29    32    1
    26    32    33    1
    27    33    34    1
    28    34    35    1
    29     4     5    1
    30     5     6    1
    31    18    19   ar
    32    19    20   ar
    33    20    11   ar
    34    19    14   ar
    35     6     1    1
    36    31    26   ar
    37    35    28    1
    38     7    10    1
    39    23    24    1
@<TRIPOS>MOLECULE
*****
 35 39 0 0 0
SMALL
GASTEIGER

@<TRIPOS>ATOM
      1 C         142.4459  143.7683  160.1161 C.3     1  UNL1        0.0769
      2 C         142.4887  144.1101  161.5760 C.3     1  UNL1        0.0104
      3 C         143.5641  143.5354  162.4496 C.3     1  UNL1        0.0162
      4 C         144.5967  142.6188  161.8633 C.3     1  UNL1        0.0543
      5 C         144.5538  142.2770  160.4034 C.3     1  UNL1        0.0162
      6 C         143.4784  142.8518  159.5298 C.3     1  UNL1        0.0104
      7 N         141.4362  144.1623  157.7548 N.am    1  UNL1       -0.2827
      8 C         141.3705  144.3430  159.2425 C.2     1  UNL1        0.2257
      9 O         140.2293  145.0985  159.8565 O.2     1  UNL1       -0.2748
     10 H         142.1852  143.6665  157.3518 H       1  UNL1        0.1549
     11 C         137.7423  141.7550  156.8550 C.ar    1  UNL1        0.2251
     12 C         136.6670  142.3297  155.9814 C.ar    1  UNL1        0.0593
     13 C         136.8229  143.7069  155.4077 C.ar    1  UNL1        0.0255
     14 C         138.0541  144.5093  155.7077 C.ar    1  UNL1        0.1004
     15 N         138.2100  145.8865  155.1340 N.ar    1  UNL1       -0.2422
     16 C         139.4413  146.6889  155.4339 C.ar    1  UNL1        0.1002
     17 C         140.5168  146.1142  156.3076 C.ar    1  UNL1        0.0369
     18 C         140.3609  144.7370  156.8812 C.ar    1  UNL1        0.0713
     19 C         139.1295  143.9346  156.5813 C.ar    1  UNL1        0.1154
     20 N         138.9736  142.5574  157.1549 N.ar    1  UNL1       -0.2089
     21 C         138.3854  139.9714  158.6314 C.3     1  UNL1        0.2542
     22 O         137.5864  140.3778  157.4287 O.3     1  UNL1       -0.4561
     23 N         145.6720  142.0441  162.7369 N.3     1  UNL1       -0.2935
     24 H         145.9726  142.7906  163.3636 H       1  UNL1        0.1236
     25 C         145.3820  140.8486  163.5952 C.3     1  UNL1        0.1152
     26 C         144.1949  139.9816  163.2972 C.ar    1  UNL1        0.0782
     27 C         142.9069  140.1935  164.0362 C.ar    1  UNL1        0.0562
     28 C         141.7197  139.3264  163.7381 C.ar    1  UNL1        0.1752
     29 C         141.8206  138.2474  162.7010 C.ar    1  UNL1        0.1914
     30 C         143.1085  138.0355  161.9619 C.ar    1  UNL1        0.1384
     31 N         144.2957  138.9025  162.2600 N.ar    1  UNL1       -0.2434
     32 O         140.6334  137.3803  162.4029 O.3     1  UNL1       -0.4668
     33 C         139.3454  137.5922  163.1419 C.3     1  UNL1        0.2527
     34 C         139.2446  138.6712  164.1790 C.3     1  UNL1        0.2526
     35 O         140.4317  139.5383  164.4771 O.3     1  UNL1       -0.4683
@<TRIPOS>BOND
     1    21    22    1
     2    22    11    1
     3    11    12   ar
     4    12    13   ar
     5    13    14   ar
     6    14    15   ar
     7    15    16   ar
     8    16    17   ar
     9    17    18   ar
    10    18     7    1
    11     7     8   am
    12     8     9    2
    13     1     8    1
    14     1     2    1
    15     2     3    1
    16     3     4    1
    17     4    23    1
    18    23    25    1
    19    25    26    1
    20    26    27   ar
    21    27    28   ar
    22    28    29   ar
    23    29    30   ar
    24    30    31   ar
    25    29    32    1
    26    32    33    1
    27    33    34    1
    28    34    35    1
    29     4     5    1
    30     5     6    1
    31    18    19   ar
    32    19    20   ar
    33    20    11   ar
    34    19    14   ar
    35     6     1    1
    36    31    26   ar
    37    35    28    1
    38     7    10    1
    39    23    24    1
@<TRIPOS>MOLECULE
*****
 35 39 0 0 0
SMALL
GASTEIGER

@<TRIPOS>ATOM
      1 C         143.0323  138.7108  161.5879 C.3     1  UNL1        0.0769
      2 C         144.1162  139.4389  162.3262 C.3     1  UNL1        0.0104
      3 C         144.1572  139.4032  163.8252 C.3     1  UNL1        0.0162
      4 C         143.1143  138.6392  164.5860 C.3     1  UNL1        0.0543
      5 C         142.0304  137.9110  163.8477 C.3     1  UNL1        0.0162
      6 C         141.9895  137.9468  162.3487 C.3     1  UNL1        0.0104
      7 N         141.8253  138.1520  159.3561 N.am    1  UNL1       -0.2827
      8 C         142.9913  138.7465  160.0890 C.2     1  UNL1        0.2257
      9 O         144.1163  139.3768  159.3227 O.2     1  UNL1       -0.2748
     10 H         141.0869  137.7383  159.8590 H       1  UNL1        0.1549
     11 C         143.5449  134.7419  156.9763 C.ar    1  UNL1        0.2251
     12 C         143.5039  134.7776  155.4773 C.ar    1  UNL1        0.0593
     13 C         142.8897  135.9501  154.7716 C.ar    1  UNL1        0.0255
     14 C         142.3165  137.0868  155.5648 C.ar    1  UNL1        0.1004
     15 N         141.7023  138.2593  154.8591 N.ar    1  UNL1       -0.2422
     16 C         141.1291  139.3960  155.6524 C.ar    1  UNL1        0.1002
     17 C         141.1700  139.3602  157.1514 C.ar    1  UNL1        0.0369
     18 C         141.7843  138.1878  157.8572 C.ar    1  UNL1        0.0713
     19 C         142.3575  137.0510  157.0638 C.ar    1  UNL1        0.1154
     20 N         142.9717  135.8785  157.7695 N.ar    1  UNL1       -0.2089
     21 C         144.3131  132.2600  156.9667 C.3     1  UNL1        0.2542
     22 O         144.1591  133.5694  157.6820 O.3     1  UNL1       -0.4561
     23 N         143.1553  138.6034  166.0850 N.3     1  UNL1       -0.2935
     24 H         144.1392  138.6212  166.3531 H       1  UNL1        0.1236
     25 C         142.4705  139.6755  166.8798 C.3     1  UNL1        0.1152
     26 C         141.3131  140.4241  166.2883 C.ar    1  UNL1        0.0782
     27 C         141.4877  141.8463  165.8446 C.ar    1  UNL1        0.0562
     28 C         140.3302  142.5949  165.2531 C.ar    1  UNL1        0.1752
     29 C         138.9981  141.9213  165.1053 C.ar    1  UNL1        0.1914
     30 C         138.8235  140.4991  165.5489 C.ar    1  UNL1        0.1384
     31 N         139.9809  139.7505  166.1404 N.ar    1  UNL1       -0.2434
     32 O         137.8406  142.6699  164.5137 O.3     1  UNL1       -0.4668
     33 C         138.0153  144.0921  164.0700 C.3     1  UNL1        0.2527
     34 C         139.3474  144.7657  164.2179 C.3     1  UNL1        0.2526
     35 O         140.5048  144.0171  164.8094 O.3     1  UNL1       -0.4683
@<TRIPOS>BOND
     1    21    22    1
     2    22    11    1
     3    11    12   ar
     4    12    13   ar
     5    13    14   ar
     6    14    15   ar
     7    15    16   ar
     8    16    17   ar
     9    17    18   ar
    10    18     7    1
    11     7     8   am
    12     8     9    2
    13     1     8    1
    14     1     2    1
    15     2     3    1
    16     3     4    1
    17     4    23    1
    18    23    25    1
    19    25    26    1
    20    26    27   ar
    21    27    28   ar
    22    28    29   ar
    23    29    30   ar
    24    30    31   ar
    25    29    32    1
    26    32    33    1
    27    33    34    1
    28    34    35    1
    29     4     5    1
    30     5     6    1
    31    18    19   ar
    32    19    20   ar
    33    20    11   ar
    34    19    14   ar
    35     6     1    1
    36    31    26   ar
    37    35    28    1
    38     7    10    1
    39    23    24    1
