@<TRIPOS>MOLECULE
*****
 29 33 0 0 0
SMALL
GASTEIGER

@<TRIPOS>ATOM
      1 C         139.2185  139.9289  166.3957 C.ar    1  UNL1        0.0015
      2 C         139.1455  138.5095  165.9158 C.ar    1  UNL1        0.0031
      3 C         138.7310  138.2153  164.5046 C.ar    1  UNL1        0.0366
      4 C         138.3895  139.3404  163.5732 C.ar    1  UNL1        0.1363
      5 C         138.4625  140.7597  164.0530 C.ar    1  UNL1        0.0329
      6 C         138.8770  141.0540  165.4643 C.ar    1  UNL1        0.0006
      7 C         138.1210  141.8848  163.1216 C.3     1  UNL1        0.1260
      8 C         137.8107  143.1072  162.3094 C.3     1  UNL1        0.0918
      9 S         138.0151  144.3089  163.1837 S.3     1  UNL1       -0.0785
     10 C         138.4516  143.8292  164.5362 C.2     1  UNL1        0.1483
     11 N         138.7672  144.6954  165.7194 N.pl3   1  UNL1       -0.3380
     12 N         138.5170  142.3310  164.4979 N.2     1  UNL1       -0.2497
     13 C         137.7065  141.5906  161.7104 C.3     1  UNL1        0.1182
     14 C         137.8017  141.2767  161.9702 C.3     1  UNL1        0.1503
     15 O         137.7016  141.6067  161.6971 O.3     1  UNL1       -0.3532
     16 C         137.8017  141.2767  161.9702 C.3     1  UNL1        0.1503
     17 C         137.6335  140.1713  161.2306 C.3     1  UNL1        0.2122
     18 O         137.9750  139.0463  162.1620 O.3     1  UNL1       -0.4755
     19 H         138.6944  145.6744  165.6460 H       1  UNL1        0.1442
     20 H         139.0471  144.2849  166.5693 H       1  UNL1        0.1442
     21 C         141.3528  141.2053  169.4885 C.ar    1  UNL1        0.0608
     22 C         140.4622  140.8115  170.6294 C.ar    1  UNL1        0.1071
     23 N         139.1570  140.1234  170.3591 N.ar    1  UNL1       -0.2417
     24 C         138.7424  139.8292  168.9478 C.ar    1  UNL1        0.0989
     25 C         139.6331  140.2231  167.8069 C.ar    1  UNL1        0.0198
     26 C         140.9383  140.9111  168.0773 C.ar    1  UNL1        0.0113
     27 C         145.2683  143.2695  170.2995 C.3     1  UNL1        0.0903
     28 C         143.9632  142.5815  170.0291 C.1     1  UNL1       -0.0853
     29 C         142.6580  141.8934  169.7588 C.1     1  UNL1       -0.0628
@<TRIPOS>BOND
     1    27    28    1
     2    28    29    3
     3    29    21    1
     4    21    22   ar
     5    22    23   ar
     6    23    24   ar
     7    24    25   ar
     8    25     1    1
     9     1     2   ar
    10     2     3   ar
    11     3     4   ar
    12     4     5   ar
    13     5     6   ar
    14     5     7    1
    15     7     8    1
    16     8     9    1
    17     9    10    1
    18    10    11    1
    19    10    12    2
    20     7    13    1
    21    13    14    1
    22    14    15    1
    23    15    16    1
    24    13    17    1
    25    17    18    1
    26    25    26   ar
    27    26    21   ar
    28     6     1   ar
    29    12     7    1
    30    16    13    1
    31    18     4    1
    32    11    19    1
    33    11    20    1
@<TRIPOS>MOLECULE
*****
 29 33 0 0 0
SMALL
GASTEIGER

@<TRIPOS>ATOM
      1 C         141.1745  139.7345  166.0497 C.ar    1  UNL1        0.0015
      2 C         140.5248  138.4735  165.5617 C.ar    1  UNL1        0.0031
      3 C         140.9862  137.8382  164.2837 C.ar    1  UNL1        0.0366
      4 C         142.0973  138.4637  163.4936 C.ar    1  UNL1        0.1363
      5 C         142.7470  139.7245  163.9815 C.ar    1  UNL1        0.0329
      6 C         142.2856  140.3600  165.2596 C.ar    1  UNL1        0.0006
      7 C         143.8580  140.3500  163.1914 C.3     1  UNL1        0.1260
      8 C         144.9744  141.0866  162.5121 C.3     1  UNL1        0.0918
      9 S         145.3118  142.2876  163.3452 S.3     1  UNL1       -0.0785
     10 C         144.4040  142.2933  164.5393 C.2     1  UNL1        0.1483
     11 N         144.3959  143.3166  165.6358 N.pl3   1  UNL1       -0.3380
     12 N         143.5055  141.0958  164.4442 N.2     1  UNL1       -0.2497
     13 C         144.3194  139.7147  161.9133 C.3     1  UNL1        0.1182
     14 C         144.0094  139.5402  162.1338 C.3     1  UNL1        0.1503
     15 O         144.3353  139.7236  161.9021 O.3     1  UNL1       -0.3532
     16 C         144.0094  139.5402  162.1338 C.3     1  UNL1        0.1503
     17 C         143.6697  138.4538  161.4254 C.3     1  UNL1        0.2122
     18 O         142.5587  137.8283  162.2155 O.3     1  UNL1       -0.4755
     19 H         145.0278  144.0711  165.6096 H       1  UNL1        0.1442
     20 H         143.7588  143.2338  166.3817 H       1  UNL1        0.1442
     21 C         139.1172  140.3993  169.3776 C.ar    1  UNL1        0.0608
     22 C         139.7903  141.6405  169.8839 C.ar    1  UNL1        0.1071
     23 N         140.9249  142.2463  169.1121 N.ar    1  UNL1       -0.2417
     24 C         141.3863  141.6110  167.8340 C.ar    1  UNL1        0.0989
     25 C         140.7132  140.3698  167.3277 C.ar    1  UNL1        0.0198
     26 C         139.5785  139.7640  168.0996 C.ar    1  UNL1        0.0113
     27 C         135.7135  138.5817  171.6930 C.3     1  UNL1        0.0903
     28 C         136.8480  139.1876  170.9212 C.1     1  UNL1       -0.0853
     29 C         137.9826  139.7935  170.1494 C.1     1  UNL1       -0.0628
@<TRIPOS>BOND
     1    27    28    1
     2    28    29    3
     3    29    21    1
     4    21    22   ar
     5    22    23   ar
     6    23    24   ar
     7    24    25   ar
     8    25     1    1
     9     1     2   ar
    10     2     3   ar
    11     3     4   ar
    12     4     5   ar
    13     5     6   ar
    14     5     7    1
    15     7     8    1
    16     8     9    1
    17     9    10    1
    18    10    11    1
    19    10    12    2
    20     7    13    1
    21    13    14    1
    22    14    15    1
    23    15    16    1
    24    13    17    1
    25    17    18    1
    26    25    26   ar
    27    26    21   ar
    28     6     1   ar
    29    12     7    1
    30    16    13    1
    31    18     4    1
    32    11    19    1
    33    11    20    1
@<TRIPOS>MOLECULE
*****
 29 33 0 0 0
SMALL
GASTEIGER

@<TRIPOS>ATOM
      1 C         140.3312  140.9040  166.7916 C.ar    1  UNL1        0.0015
      2 C         140.4327  139.4104  166.6969 C.ar    1  UNL1        0.0031
      3 C         139.8299  138.6904  165.5271 C.ar    1  UNL1        0.0366
      4 C         139.1257  139.4640  164.4521 C.ar    1  UNL1        0.1363
      5 C         139.0242  140.9575  164.5468 C.ar    1  UNL1        0.0329
      6 C         139.6270  141.6775  165.7166 C.ar    1  UNL1        0.0006
      7 C         138.3200  141.7311  163.4718 C.3     1  UNL1        0.1260
      8 C         137.6499  142.6340  162.4790 C.3     1  UNL1        0.0918
      9 S         137.7865  144.0450  162.9696 S.3     1  UNL1       -0.0785
     10 C         138.5411  144.0141  164.2656 C.2     1  UNL1        0.1483
     11 N         138.9025  145.2041  165.1040 N.pl3   1  UNL1       -0.3380
     12 N         138.8708  142.5840  164.5760 N.2     1  UNL1       -0.2497
     13 C         137.7173  141.0111  162.3020 C.3     1  UNL1        0.1182
     14 C         137.9138  140.7953  162.6020 C.3     1  UNL1        0.1503
     15 O         137.7073  141.0221  162.2867 O.3     1  UNL1       -0.3532
     16 C         137.9138  140.7953  162.6020 C.3     1  UNL1        0.1503
     17 C         137.8188  139.5176  162.2073 C.3     1  UNL1        0.2122
     18 O         138.5230  138.7440  163.2824 O.3     1  UNL1       -0.4755
     19 H         138.6402  146.1079  164.8148 H       1  UNL1        0.1442
     20 H         139.4020  145.0815  165.9434 H       1  UNL1        0.1442
     21 C         140.8547  143.5528  169.7002 C.ar    1  UNL1        0.0608
     22 C         142.1393  143.0639  170.3009 C.ar    1  UNL1        0.1071
     23 N         142.8212  141.8551  169.7319 N.ar    1  UNL1       -0.2417
     24 C         142.2185  141.1351  168.5621 C.ar    1  UNL1        0.0989
     25 C         140.9339  141.6239  167.9614 C.ar    1  UNL1        0.0198
     26 C         140.2520  142.8328  168.5304 C.ar    1  UNL1        0.0113
     27 C         138.8090  147.1792  171.4072 C.3     1  UNL1        0.0903
     28 C         139.4909  145.9704  170.8382 C.1     1  UNL1       -0.0853
     29 C         140.1728  144.7616  170.2692 C.1     1  UNL1       -0.0628
@<TRIPOS>BOND
     1    27    28    1
     2    28    29    3
     3    29    21    1
     4    21    22   ar
     5    22    23   ar
     6    23    24   ar
     7    24    25   ar
     8    25     1    1
     9     1     2   ar
    10     2     3   ar
    11     3     4   ar
    12     4     5   ar
    13     5     6   ar
    14     5     7    1
    15     7     8    1
    16     8     9    1
    17     9    10    1
    18    10    11    1
    19    10    12    2
    20     7    13    1
    21    13    14    1
    22    14    15    1
    23    15    16    1
    24    13    17    1
    25    17    18    1
    26    25    26   ar
    27    26    21   ar
    28     6     1   ar
    29    12     7    1
    30    16    13    1
    31    18     4    1
    32    11    19    1
    33    11    20    1
@<TRIPOS>MOLECULE
*****
 29 33 0 0 0
SMALL
GASTEIGER

@<TRIPOS>ATOM
      1 C         142.9568  141.8348  165.7806 C.ar    1  UNL1        0.0015
      2 C         143.5528  142.4879  166.9924 C.ar    1  UNL1        0.0031
      3 C         142.8929  142.3306  168.3302 C.ar    1  UNL1        0.0366
      4 C         141.6369  141.5203  168.4563 C.ar    1  UNL1        0.1363
      5 C         141.0408  140.8673  167.2446 C.ar    1  UNL1        0.0329
      6 C         141.7008  141.0245  165.9067 C.ar    1  UNL1        0.0006
      7 C         139.7848  140.0571  167.3707 C.3     1  UNL1        0.1260
      8 C         138.5395  139.2213  167.3422 C.3     1  UNL1        0.0918
      9 S         138.3144  138.7728  165.9286 S.3     1  UNL1       -0.0785
     10 C         139.4206  139.3314  165.0834 C.2     1  UNL1        0.1483
     11 N         139.5885  139.1314  163.6064 N.pl3   1  UNL1       -0.3380
     12 N         140.3294  140.1251  165.9746 N.2     1  UNL1       -0.2497
     13 C         139.1248  139.8998  168.7085 C.3     1  UNL1        0.1182
     14 C         139.4753  140.1259  168.6733 C.3     1  UNL1        0.1503
     15 O         139.1069  139.8882  168.7103 O.3     1  UNL1       -0.3532
     16 C         139.4753  140.1259  168.6733 C.3     1  UNL1        0.1503
     17 C         139.7209  140.5528  169.9202 C.3     1  UNL1        0.2122
     18 O         140.9769  141.3631  169.7941 O.3     1  UNL1       -0.4755
     19 H         138.9359  138.5907  163.1055 H       1  UNL1        0.1442
     20 H         140.3515  139.5408  163.1378 H       1  UNL1        0.1442
     21 C         143.5223  142.7656  161.9644 C.ar    1  UNL1        0.0608
     22 C         144.9366  142.3066  161.7672 C.ar    1  UNL1        0.1071
     23 N         145.6910  141.6903  162.9078 N.ar    1  UNL1       -0.2417
     24 C         145.0311  141.5330  164.2457 C.ar    1  UNL1        0.0989
     25 C         143.6167  141.9921  164.4429 C.ar    1  UNL1        0.0198
     26 C         142.8623  142.6084  163.3022 C.ar    1  UNL1        0.0113
     27 C         141.2590  144.6145  158.5426 C.3     1  UNL1        0.0903
     28 C         142.0134  143.9982  159.6831 C.1     1  UNL1       -0.0853
     29 C         142.7679  143.3819  160.8238 C.1     1  UNL1       -0.0628
@<TRIPOS>BOND
     1    27    28    1
     2    28    29    3
     3    29    21    1
     4    21    22   ar
     5    22    23   ar
     6    23    24   ar
     7    24    25   ar
     8    25     1    1
     9     1     2   ar
    10     2     3   ar
    11     3     4   ar
    12     4     5   ar
    13     5     6   ar
    14     5     7    1
    15     7     8    1
    16     8     9    1
    17     9    10    1
    18    10    11    1
    19    10    12    2
    20     7    13    1
    21    13    14    1
    22    14    15    1
    23    15    16    1
    24    13    17    1
    25    17    18    1
    26    25    26   ar
    27    26    21   ar
    28     6     1   ar
    29    12     7    1
    30    16    13    1
    31    18     4    1
    32    11    19    1
    33    11    20    1
@<TRIPOS>MOLECULE
*****
 29 33 0 0 0
SMALL
GASTEIGER

@<TRIPOS>ATOM
      1 C         139.6028  138.9496  165.2184 C.ar    1  UNL1        0.0015
      2 C         138.3620  138.1757  165.5526 C.ar    1  UNL1        0.0031
      3 C         137.7424  138.3027  166.9128 C.ar    1  UNL1        0.0366
      4 C         138.3636  139.2035  167.9387 C.ar    1  UNL1        0.1363
      5 C         139.6043  139.9774  167.6046 C.ar    1  UNL1        0.0329
      6 C         140.2239  139.8504  166.2444 C.ar    1  UNL1        0.0006
      7 C         140.2254  140.8783  168.6306 C.3     1  UNL1        0.1260
      8 C         140.9555  141.8132  169.5487 C.3     1  UNL1        0.0918
      9 S         142.1353  142.3659  168.8051 S.3     1  UNL1       -0.0785
     10 C         142.1344  141.7725  167.4275 C.2     1  UNL1        0.1483
     11 N         143.1376  142.0498  166.3475 N.pl3   1  UNL1       -0.3380
     12 N         140.9540  140.8531  167.3196 N.2     1  UNL1       -0.2497
     13 C         139.6059  141.0052  169.9907 C.3     1  UNL1        0.1182
     14 C         139.4326  140.7539  169.7044 C.3     1  UNL1        0.1503
     15 O         139.6147  141.0181  170.0053 O.3     1  UNL1       -0.3532
     16 C         139.4326  140.7539  169.7044 C.3     1  UNL1        0.1503
     17 C         138.3652  140.2314  170.3248 C.3     1  UNL1        0.2122
     18 O         137.7440  139.3305  169.2989 O.3     1  UNL1       -0.4755
     19 H         143.8817  142.6722  166.5148 H       1  UNL1        0.1442
     20 H         143.0518  141.6093  165.4712 H       1  UNL1        0.1442
     21 C         141.8579  139.6996  162.0401 C.ar    1  UNL1        0.0608
     22 C         141.4615  138.5687  161.1380 C.ar    1  UNL1        0.1071
     23 N         140.4456  137.5647  161.5960 N.ar    1  UNL1       -0.2417
     24 C         139.8259  137.6916  162.9562 C.ar    1  UNL1        0.0989
     25 C         140.2223  138.8226  163.8583 C.ar    1  UNL1        0.0198
     26 C         141.2383  139.8266  163.4002 C.ar    1  UNL1        0.0113
     27 C         144.9057  142.7117  160.6660 C.3     1  UNL1        0.0903
     28 C         143.8897  141.7077  161.1240 C.1     1  UNL1       -0.0853
     29 C         142.8738  140.7036  161.5821 C.1     1  UNL1       -0.0628
@<TRIPOS>BOND
     1    27    28    1
     2    28    29    3
     3    29    21    1
     4    21    22   ar
     5    22    23   ar
     6    23    24   ar
     7    24    25   ar
     8    25     1    1
     9     1     2   ar
    10     2     3   ar
    11     3     4   ar
    12     4     5   ar
    13     5     6   ar
    14     5     7    1
    15     7     8    1
    16     8     9    1
    17     9    10    1
    18    10    11    1
    19    10    12    2
    20     7    13    1
    21    13    14    1
    22    14    15    1
    23    15    16    1
    24    13    17    1
    25    17    18    1
    26    25    26   ar
    27    26    21   ar
    28     6     1   ar
    29    12     7    1
    30    16    13    1
    31    18     4    1
    32    11    19    1
    33    11    20    1
@<TRIPOS>MOLECULE
*****
 29 33 0 0 0
SMALL
GASTEIGER

@<TRIPOS>ATOM
      1 C         142.0964  142.0136  166.5280 C.ar    1  UNL1        0.0015
      2 C         143.4939  142.5491  166.4260 C.ar    1  UNL1        0.0031
      3 C         143.9375  143.2548  165.1789 C.ar    1  UNL1        0.0366
      4 C         142.9835  143.4252  164.0339 C.ar    1  UNL1        0.1363
      5 C         141.5861  142.8898  164.1360 C.ar    1  UNL1        0.0329
      6 C         141.1425  142.1840  165.3830 C.ar    1  UNL1        0.0006
      7 C         140.6322  143.0602  162.9910 C.3     1  UNL1        0.1260
      8 C         139.5724  143.1547  161.9336 C.3     1  UNL1        0.0918
      9 S         138.3343  142.4892  162.4575 S.3     1  UNL1       -0.0785
     10 C         138.6289  141.9834  163.8385 C.2     1  UNL1        0.1483
     11 N         137.6716  141.2529  164.7328 N.pl3   1  UNL1       -0.3380
     12 N         140.0491  142.3362  164.1683 N.2     1  UNL1       -0.2497
     13 C         141.0757  143.7659  161.7439 C.3     1  UNL1        0.1182
     14 C         141.3419  143.7184  162.0634 C.3     1  UNL1        0.1503
     15 O         141.0621  143.7684  161.7276 O.3     1  UNL1       -0.3532
     16 C         141.3419  143.7184  162.0634 C.3     1  UNL1        0.1503
     17 C         142.4732  144.3013  161.6419 C.3     1  UNL1        0.2122
     18 O         143.4271  144.1309  162.7869 O.3     1  UNL1       -0.4755
     19 H         136.7550  141.0670  164.4253 H       1  UNL1        0.1442
     20 H         137.9598  140.9595  165.6273 H       1  UNL1        0.1442
     21 C         142.0186  139.4629  169.5674 C.ar    1  UNL1        0.0608
     22 C         140.7658  139.8963  170.2692 C.ar    1  UNL1        0.1071
     23 N         139.9565  141.0355  169.7240 N.ar    1  UNL1       -0.2417
     24 C         140.4000  141.7413  168.4769 C.ar    1  UNL1        0.0989
     25 C         141.6529  141.3079  167.7751 C.ar    1  UNL1        0.0198
     26 C         142.4622  140.1687  168.3204 C.ar    1  UNL1        0.0113
     27 C         144.4465  136.0453  171.2031 C.3     1  UNL1        0.0903
     28 C         143.6372  137.1845  170.6579 C.1     1  UNL1       -0.0853
     29 C         142.8279  138.3238  170.1126 C.1     1  UNL1       -0.0628
@<TRIPOS>BOND
     1    27    28    1
     2    28    29    3
     3    29    21    1
     4    21    22   ar
     5    22    23   ar
     6    23    24   ar
     7    24    25   ar
     8    25     1    1
     9     1     2   ar
    10     2     3   ar
    11     3     4   ar
    12     4     5   ar
    13     5     6   ar
    14     5     7    1
    15     7     8    1
    16     8     9    1
    17     9    10    1
    18    10    11    1
    19    10    12    2
    20     7    13    1
    21    13    14    1
    22    14    15    1
    23    15    16    1
    24    13    17    1
    25    17    18    1
    26    25    26   ar
    27    26    21   ar
    28     6     1   ar
    29    12     7    1
    30    16    13    1
    31    18     4    1
    32    11    19    1
    33    11    20    1
@<TRIPOS>MOLECULE
*****
 29 33 0 0 0
SMALL
GASTEIGER

@<TRIPOS>ATOM
      1 C         141.0947  139.7690  165.5312 C.ar    1  UNL1        0.0015
      2 C         139.8977  138.9159  165.2317 C.ar    1  UNL1        0.0031
      3 C         138.8278  138.7348  166.2672 C.ar    1  UNL1        0.0366
      4 C         138.9547  139.4068  167.6023 C.ar    1  UNL1        0.1363
      5 C         140.1516  140.2598  167.9018 C.ar    1  UNL1        0.0329
      6 C         141.2217  140.4409  166.8662 C.ar    1  UNL1        0.0006
      7 C         140.2786  140.9317  169.2369 C.3     1  UNL1        0.1260
      8 C         140.5416  141.6624  170.5202 C.3     1  UNL1        0.0918
      9 S         141.8483  142.3862  170.3821 S.3     1  UNL1       -0.0785
     10 C         142.3927  142.1028  169.0135 C.2     1  UNL1        0.1483
     11 N         143.6810  142.6263  168.4514 N.pl3   1  UNL1       -0.3380
     12 N         141.4226  141.2039  168.3056 N.2     1  UNL1       -0.2497
     13 C         139.2086  140.7506  170.2724 C.3     1  UNL1        0.1182
     14 C         139.1732  140.5632  169.8999 C.3     1  UNL1        0.1503
     15 O         139.2104  140.7602  170.2914 O.3     1  UNL1       -0.3532
     16 C         139.1732  140.5632  169.8999 C.3     1  UNL1        0.1503
     17 C         138.0117  139.8976  169.9729 C.3     1  UNL1        0.2122
     18 O         137.8848  139.2257  168.6378 O.3     1  UNL1       -0.4755
     19 H         144.2534  143.2134  168.9963 H       1  UNL1        0.1442
     20 H         143.9543  142.3828  167.5374 H       1  UNL1        0.1442
     21 C         143.0907  139.4881  162.1126 C.ar    1  UNL1        0.0608
     22 C         144.3046  140.3122  162.4245 C.ar    1  UNL1        0.1071
     23 N         144.4486  140.9552  163.7720 N.ar    1  UNL1       -0.2417
     24 C         143.3786  140.7741  164.8076 C.ar    1  UNL1        0.0989
     25 C         142.1647  139.9501  164.4957 C.ar    1  UNL1        0.0198
     26 C         142.0208  139.3070  163.1481 C.ar    1  UNL1        0.0113
     27 C         142.6588  137.5591  158.0700 C.3     1  UNL1        0.0903
     28 C         142.8027  138.2021  159.4175 C.1     1  UNL1       -0.0853
     29 C         142.9467  138.8451  160.7651 C.1     1  UNL1       -0.0628
@<TRIPOS>BOND
     1    27    28    1
     2    28    29    3
     3    29    21    1
     4    21    22   ar
     5    22    23   ar
     6    23    24   ar
     7    24    25   ar
     8    25     1    1
     9     1     2   ar
    10     2     3   ar
    11     3     4   ar
    12     4     5   ar
    13     5     6   ar
    14     5     7    1
    15     7     8    1
    16     8     9    1
    17     9    10    1
    18    10    11    1
    19    10    12    2
    20     7    13    1
    21    13    14    1
    22    14    15    1
    23    15    16    1
    24    13    17    1
    25    17    18    1
    26    25    26   ar
    27    26    21   ar
    28     6     1   ar
    29    12     7    1
    30    16    13    1
    31    18     4    1
    32    11    19    1
    33    11    20    1
@<TRIPOS>MOLECULE
*****
 29 33 0 0 0
SMALL
GASTEIGER

@<TRIPOS>ATOM
      1 C         141.9009  140.0522  166.0789 C.ar    1  UNL1        0.0015
      2 C         143.3606  139.7097  166.0323 C.ar    1  UNL1        0.0031
      3 C         143.9414  139.0671  164.8077 C.ar    1  UNL1        0.0366
      4 C         143.0626  138.7669  163.6297 C.ar    1  UNL1        0.1363
      5 C         141.6030  139.1093  163.6763 C.ar    1  UNL1        0.0329
      6 C         141.0221  139.7520  164.9010 C.ar    1  UNL1        0.0006
      7 C         140.7241  138.8092  162.4984 C.3     1  UNL1        0.1260
      8 C         139.7270  138.5701  161.4036 C.3     1  UNL1        0.0918
      9 S         138.3919  139.0640  161.8766 S.3     1  UNL1       -0.0785
     10 C         138.5639  139.6083  163.2637 C.2     1  UNL1        0.1483
     11 N         137.4842  140.2052  164.1168 N.pl3   1  UNL1       -0.3380
     12 N         140.0053  139.4508  163.6481 N.2     1  UNL1       -0.2497
     13 C         141.3050  138.1666  161.2738 C.3     1  UNL1        0.1182
     14 C         141.5501  138.2503  161.6024 C.3     1  UNL1        0.1503
     15 O         141.2924  138.1623  161.2570 O.3     1  UNL1       -0.3532
     16 C         141.5501  138.2503  161.6024 C.3     1  UNL1        0.1503
     17 C         142.7646  137.8242  161.2271 C.3     1  UNL1        0.2122
     18 O         143.6434  138.1243  162.4051 O.3     1  UNL1       -0.4755
     19 H         136.5631  140.2652  163.7744 H       1  UNL1        0.1442
     20 H         137.6966  140.5370  165.0190 H       1  UNL1        0.1442
     21 C         139.5831  140.6948  169.2357 C.ar    1  UNL1        0.0608
     22 C         140.1584  141.9799  169.7528 C.ar    1  UNL1        0.1071
     23 N         141.3144  142.6225  169.0453 N.ar    1  UNL1       -0.2417
     24 C         141.8953  141.9799  167.8207 C.ar    1  UNL1        0.0989
     25 C         141.3201  140.6948  167.3035 C.ar    1  UNL1        0.0198
     26 C         140.1639  140.0522  168.0111 C.ar    1  UNL1        0.0113
     27 C         136.1148  138.7670  171.3581 C.3     1  UNL1        0.0903
     28 C         137.2709  139.4096  170.6506 C.1     1  UNL1       -0.0853
     29 C         138.4271  140.0522  169.9431 C.1     1  UNL1       -0.0628
@<TRIPOS>BOND
     1    27    28    1
     2    28    29    3
     3    29    21    1
     4    21    22   ar
     5    22    23   ar
     6    23    24   ar
     7    24    25   ar
     8    25     1    1
     9     1     2   ar
    10     2     3   ar
    11     3     4   ar
    12     4     5   ar
    13     5     6   ar
    14     5     7    1
    15     7     8    1
    16     8     9    1
    17     9    10    1
    18    10    11    1
    19    10    12    2
    20     7    13    1
    21    13    14    1
    22    14    15    1
    23    15    16    1
    24    13    17    1
    25    17    18    1
    26    25    26   ar
    27    26    21   ar
    28     6     1   ar
    29    12     7    1
    30    16    13    1
    31    18     4    1
    32    11    19    1
    33    11    20    1
@<TRIPOS>MOLECULE
*****
 29 33 0 0 0
SMALL
GASTEIGER

@<TRIPOS>ATOM
      1 C         140.2944  141.9552  166.3819 C.ar    1  UNL1        0.0015
      2 C         140.0281  143.4209  166.2064 C.ar    1  UNL1        0.0031
      3 C         139.2937  143.9098  164.9933 C.ar    1  UNL1        0.0366
      4 C         138.8256  142.9330  163.9557 C.ar    1  UNL1        0.1363
      5 C         139.0918  141.4673  164.1312 C.ar    1  UNL1        0.0329
      6 C         139.8263  140.9783  165.3443 C.ar    1  UNL1        0.0006
      7 C         138.6237  140.4905  163.0935 C.3     1  UNL1        0.1260
      8 C         138.2185  139.4010  162.1454 C.3     1  UNL1        0.0918
      9 S         138.6863  138.0940  162.7139 S.3     1  UNL1       -0.0785
     10 C         139.3806  138.3757  164.0133 C.2     1  UNL1        0.1483
     11 N         140.0041  137.3556  164.9190 N.pl3   1  UNL1       -0.3380
     12 N         139.3419  139.8568  164.2480 N.2     1  UNL1       -0.2497
     13 C         137.8893  140.9793  161.8805 C.3     1  UNL1        0.1182
     14 C         138.0199  141.2518  162.1700 C.3     1  UNL1        0.1503
     15 O         137.8826  140.9654  161.8657 O.3     1  UNL1       -0.3532
     16 C         138.0199  141.2518  162.1700 C.3     1  UNL1        0.1503
     17 C         137.6230  142.4450  161.7050 C.3     1  UNL1        0.2122
     18 O         138.0912  143.4218  162.7426 O.3     1  UNL1       -0.4755
     19 H         139.9784  136.4015  164.6774 H       1  UNL1        0.1442
     20 H         140.4390  137.6400  165.7552 H       1  UNL1        0.1442
     21 C         142.9320  141.7526  169.3403 C.ar    1  UNL1        0.0608
     22 C         142.4977  140.4886  170.0212 C.ar    1  UNL1        0.1071
     23 N         141.3290  139.7134  169.4891 N.ar    1  UNL1       -0.2417
     24 C         140.5945  140.2023  168.2759 C.ar    1  UNL1        0.0989
     25 C         141.0288  141.4663  167.5950 C.ar    1  UNL1        0.0198
     26 C         142.1976  142.2415  168.1272 C.ar    1  UNL1        0.0113
     27 C         146.4381  144.0782  170.9368 C.3     1  UNL1        0.0903
     28 C         145.2694  143.3031  170.4047 C.1     1  UNL1       -0.0853
     29 C         144.1007  142.5278  169.8725 C.1     1  UNL1       -0.0628
@<TRIPOS>BOND
     1    27    28    1
     2    28    29    3
     3    29    21    1
     4    21    22   ar
     5    22    23   ar
     6    23    24   ar
     7    24    25   ar
     8    25     1    1
     9     1     2   ar
    10     2     3   ar
    11     3     4   ar
    12     4     5   ar
    13     5     6   ar
    14     5     7    1
    15     7     8    1
    16     8     9    1
    17     9    10    1
    18    10    11    1
    19    10    12    2
    20     7    13    1
    21    13    14    1
    22    14    15    1
    23    15    16    1
    24    13    17    1
    25    17    18    1
    26    25    26   ar
    27    26    21   ar
    28     6     1   ar
    29    12     7    1
    30    16    13    1
    31    18     4    1
    32    11    19    1
    33    11    20    1
