@<TRIPOS>MOLECULE
*****
 34 38 0 0 0
SMALL
GASTEIGER

@<TRIPOS>ATOM
      1 N         141.6109  142.7392  165.4864 N.3     1  UNL1       -0.2710
      2 C         140.2722  142.9407  164.8405 C.3     1  UNL1        0.0728
      3 C         140.1881  143.4435  163.4298 C.3     1  UNL1        0.0298
      4 C         141.4428  143.7448  162.6650 C.3     1  UNL1        0.1147
      5 C         142.7816  143.5434  163.3109 C.3     1  UNL1        0.0298
      6 C         142.8656  143.0405  164.7216 C.3     1  UNL1        0.0728
      7 C         141.3588  144.2477  161.2543 C.2     1  UNL1        0.3507
      8 N         140.2357  145.0527  160.6706 N.2     1  UNL1       -0.0351
      9 C         140.5659  145.3363  159.2352 C.2     1  UNL1        0.2317
     10 C         139.8296  146.0866  158.1652 C.2     1  UNL1        0.0537
     11 C         140.4204  146.2072  156.7917 C.2     1  UNL1        0.0714
     12 C         141.7475  145.5776  156.4882 C.2     1  UNL1       -0.0133
     13 C         142.4839  144.8272  157.5582 C.3     1  UNL1        0.1037
     14 C         141.8931  144.7066  158.9317 C.2     1  UNL1        0.2174
     15 N         142.3831  144.0338  160.1795 N.2     1  UNL1       -0.0389
     16 C         139.6841  146.9576  155.7218 C.3     1  UNL1        0.4184
     17 F         138.9477  147.7079  154.6518 F       1  UNL1       -0.1659
     18 F         138.9408  147.7273  156.7731 F       1  UNL1       -0.1659
     19 F         140.4273  146.1879  154.6706 F       1  UNL1       -0.1659
     20 C         141.6949  142.2364  166.8972 C.3     1  UNL1        0.0970
     21 C         141.7356  140.7613  167.1664 C.3     1  UNL1        0.1264
     22 C         142.3926  138.5208  163.3196 C.ar    1  UNL1        0.1593
     23 C         141.3149  137.6294  162.7774 C.ar    1  UNL1        0.1357
     24 N         140.0182  137.4849  163.5174 N.ar    1  UNL1       -0.2392
     25 C         139.7992  138.2317  164.7997 C.ar    1  UNL1        0.0975
     26 C         138.5025  138.0872  165.5397 C.ar    1  UNL1        0.0255
     27 C         138.2835  138.8340  166.8220 C.ar    1  UNL1        0.0623
     28 C         139.3612  139.7254  167.3643 C.ar    1  UNL1        0.2611
     29 O         139.1422  140.4722  168.6465 O.2     1  UNL1       -0.2670
     30 N         140.6579  139.8700  166.6242 N.ar    1  UNL1       -0.2926
     31 C         140.8769  139.1231  165.3419 C.ar    1  UNL1        0.0832
     32 C         142.1736  139.2676  164.6018 C.ar    1  UNL1        0.0573
     33 C         143.9507  137.8381  161.3559 C.3     1  UNL1        0.2525
     34 O         143.6893  138.6653  162.5795 O.3     1  UNL1       -0.4698
@<TRIPOS>BOND
     1    33    34    1
     2    34    22    1
     3    22    23   ar
     4    23    24   ar
     5    24    25   ar
     6    25    26   ar
     7    26    27   ar
     8    27    28   ar
     9    28    29    2
    10    28    30   ar
    11    30    21    1
    12    21    20    1
    13    20     1    1
    14     1     2    1
    15     2     3    1
    16     3     4    1
    17     4     7    1
    18     7     8    2
    19     8     9    1
    20     9    10    2
    21    10    11    1
    22    11    16    1
    23    16    17    1
    24    16    18    1
    25    16    19    1
    26    11    12    2
    27    12    13    1
    28    13    14    1
    29    14    15    2
    30     4     5    1
    31     5     6    1
    32    30    31   ar
    33    31    32   ar
    34    32    22   ar
    35    31    25   ar
    36     6     1    1
    37    15     7    1
    38    14     9    1
@<TRIPOS>MOLECULE
*****
 34 38 0 0 0
SMALL
GASTEIGER

@<TRIPOS>ATOM
      1 N         140.5653  143.1058  165.5010 N.3     1  UNL1       -0.2710
      2 C         141.8790  143.0072  164.7838 C.3     1  UNL1        0.0728
      3 C         141.9890  143.4520  163.3555 C.3     1  UNL1        0.0298
      4 C         140.7852  143.9954  162.6445 C.3     1  UNL1        0.1147
      5 C         139.4715  144.0940  163.3617 C.3     1  UNL1        0.0298
      6 C         139.3615  143.6492  164.7900 C.3     1  UNL1        0.0728
      7 C         140.8951  144.4403  161.2161 C.2     1  UNL1        0.3507
      8 N         139.8696  145.2290  160.4569 N.2     1  UNL1       -0.0351
      9 C         140.3904  145.4507  159.0679 C.2     1  UNL1        0.2317
     10 C         139.8119  146.1617  157.8806 C.2     1  UNL1        0.0537
     11 C         140.5808  146.2212  156.5940 C.2     1  UNL1        0.0714
     12 C         141.9281  145.5695  156.4947 C.2     1  UNL1       -0.0133
     13 C         142.5067  144.8584  157.6820 C.3     1  UNL1        0.1037
     14 C         141.7379  144.7990  158.9686 C.2     1  UNL1        0.2174
     15 N         142.0497  144.1745  160.2963 N.2     1  UNL1       -0.0389
     16 C         140.0023  146.9322  155.4067 C.3     1  UNL1        0.4184
     17 F         139.4237  147.6433  154.2193 F       1  UNL1       -0.1659
     18 F         141.1078  146.3955  154.5466 F       1  UNL1       -0.1659
     19 F         138.8968  147.4689  156.2668 F       1  UNL1       -0.1659
     20 C         140.4554  142.6609  166.9294 C.3     1  UNL1        0.0970
     21 C         140.1948  141.2184  167.2477 C.3     1  UNL1        0.1264
     22 C         139.1088  139.0846  163.4375 C.ar    1  UNL1        0.1593
     23 C         140.0131  138.0206  162.8899 C.ar    1  UNL1        0.1357
     24 N         141.2794  137.6677  163.6123 N.ar    1  UNL1       -0.2392
     25 C         141.6415  138.3790  164.8824 C.ar    1  UNL1        0.0975
     26 C         142.9078  138.0261  165.6048 C.ar    1  UNL1        0.0255
     27 C         143.2698  138.7374  166.8748 C.ar    1  UNL1        0.0623
     28 C         142.3655  139.8015  167.4225 C.ar    1  UNL1        0.2611
     29 O         142.7275  140.5128  168.6925 O.2     1  UNL1       -0.2670
     30 N         141.0992  140.1544  166.7001 N.ar    1  UNL1       -0.2926
     31 C         140.7371  139.4430  165.4300 C.ar    1  UNL1        0.0832
     32 C         139.4708  139.7959  164.7076 C.ar    1  UNL1        0.0573
     33 C         137.6651  140.8112  162.1396 C.3     1  UNL1        0.2525
     34 O         137.8424  139.4375  162.7151 O.3     1  UNL1       -0.4698
@<TRIPOS>BOND
     1    33    34    1
     2    34    22    1
     3    22    23   ar
     4    23    24   ar
     5    24    25   ar
     6    25    26   ar
     7    26    27   ar
     8    27    28   ar
     9    28    29    2
    10    28    30   ar
    11    30    21    1
    12    21    20    1
    13    20     1    1
    14     1     2    1
    15     2     3    1
    16     3     4    1
    17     4     7    1
    18     7     8    2
    19     8     9    1
    20     9    10    2
    21    10    11    1
    22    11    16    1
    23    16    17    1
    24    16    18    1
    25    16    19    1
    26    11    12    2
    27    12    13    1
    28    13    14    1
    29    14    15    2
    30     4     5    1
    31     5     6    1
    32    30    31   ar
    33    31    32   ar
    34    32    22   ar
    35    31    25   ar
    36     6     1    1
    37    15     7    1
    38    14     9    1
@<TRIPOS>MOLECULE
*****
 34 38 0 0 0
SMALL
GASTEIGER

@<TRIPOS>ATOM
      1 N         142.5577  138.0309  160.3708 N.3     1  UNL1       -0.2710
      2 C         141.2965  138.4503  161.0659 C.3     1  UNL1        0.0728
      3 C         141.3472  138.9327  162.4853 C.3     1  UNL1        0.0298
      4 C         142.6593  138.9956  163.2096 C.3     1  UNL1        0.1147
      5 C         143.9206  138.5761  162.5144 C.3     1  UNL1        0.0298
      6 C         143.8698  138.0938  161.0950 C.3     1  UNL1        0.0728
      7 C         142.7101  139.4779  164.6290 C.2     1  UNL1        0.3507
      8 N         142.9515  140.8905  165.0721 N.2     1  UNL1       -0.0351
      9 C         142.9191  140.9180  166.5715 C.2     1  UNL1        0.2317
     10 C         143.0938  142.0336  167.5589 C.2     1  UNL1        0.0537
     11 C         143.0071  141.7535  169.0300 C.2     1  UNL1        0.0714
     12 C         142.7457  140.3579  169.5136 C.2     1  UNL1       -0.0133
     13 C         142.5710  139.2423  168.5262 C.3     1  UNL1        0.1037
     14 C         142.6576  139.5224  167.0551 C.2     1  UNL1        0.2174
     15 N         142.5285  138.6324  165.8546 N.2     1  UNL1       -0.0389
     16 C         143.1818  142.8690  170.0174 C.3     1  UNL1        0.4184
     17 F         143.3565  143.9846  171.0049 F       1  UNL1       -0.1659
     18 F         141.7033  143.1213  169.9939 F       1  UNL1       -0.1659
     19 F         144.6602  142.6167  170.0408 F       1  UNL1       -0.1659
     20 C         142.5069  137.5485  158.9513 C.3     1  UNL1        0.0970
     21 C         142.2084  138.5128  157.8418 C.3     1  UNL1        0.1264
     22 C         144.4177  142.2367  159.0671 C.ar    1  UNL1        0.1593
     23 C         145.5314  142.7638  158.2115 C.ar    1  UNL1        0.1357
     24 N         145.9086  142.0495  156.9476 N.ar    1  UNL1       -0.2392
     25 C         145.1722  140.8083  156.5392 C.ar    1  UNL1        0.0975
     26 C         145.5494  140.0940  155.2752 C.ar    1  UNL1        0.0255
     27 C         144.8130  138.8527  154.8668 C.ar    1  UNL1        0.0623
     28 C         143.6993  138.3256  155.7223 C.ar    1  UNL1        0.2611
     29 O         142.9629  137.0844  155.3139 O.2     1  UNL1       -0.2670
     30 N         143.3221  139.0399  156.9863 N.ar    1  UNL1       -0.2926
     31 C         144.0585  140.2812  157.3947 C.ar    1  UNL1        0.0832
     32 C         143.6813  140.9955  158.6586 C.ar    1  UNL1        0.0573
     33 C         143.4011  142.1947  161.4576 C.3     1  UNL1        0.2525
     34 O         144.0405  142.9510  160.3310 O.3     1  UNL1       -0.4698
@<TRIPOS>BOND
     1    33    34    1
     2    34    22    1
     3    22    23   ar
     4    23    24   ar
     5    24    25   ar
     6    25    26   ar
     7    26    27   ar
     8    27    28   ar
     9    28    29    2
    10    28    30   ar
    11    30    21    1
    12    21    20    1
    13    20     1    1
    14     1     2    1
    15     2     3    1
    16     3     4    1
    17     4     7    1
    18     7     8    2
    19     8     9    1
    20     9    10    2
    21    10    11    1
    22    11    16    1
    23    16    17    1
    24    16    18    1
    25    16    19    1
    26    11    12    2
    27    12    13    1
    28    13    14    1
    29    14    15    2
    30     4     5    1
    31     5     6    1
    32    30    31   ar
    33    31    32   ar
    34    32    22   ar
    35    31    25   ar
    36     6     1    1
    37    15     7    1
    38    14     9    1
@<TRIPOS>MOLECULE
*****
 34 38 0 0 0
SMALL
GASTEIGER

@<TRIPOS>ATOM
      1 N         142.7473  138.1416  160.5009 N.3     1  UNL1       -0.2710
      2 C         141.5229  138.0123  161.3577 C.3     1  UNL1        0.0728
      3 C         141.5487  138.4891  162.7796 C.3     1  UNL1        0.0298
      4 C         142.7990  139.0952  163.3447 C.3     1  UNL1        0.1147
      5 C         144.0234  139.2245  162.4880 C.3     1  UNL1        0.0298
      6 C         143.9976  138.7476  161.0660 C.3     1  UNL1        0.0728
      7 C         142.8248  139.5720  164.7668 C.2     1  UNL1        0.3507
      8 N         143.0977  140.9752  165.2213 N.2     1  UNL1       -0.0351
      9 C         143.0239  140.9999  166.7193 C.2     1  UNL1        0.2317
     10 C         143.2055  142.1068  167.7151 C.2     1  UNL1        0.0537
     11 C         143.0687  141.8258  169.1822 C.2     1  UNL1        0.0714
     12 C         142.7503  140.4378  169.6534 C.2     1  UNL1       -0.0133
     13 C         142.5686  139.3308  168.6576 C.3     1  UNL1        0.1037
     14 C         142.7054  139.6118  167.1905 C.2     1  UNL1        0.2174
     15 N         142.5824  138.7294  165.9838 N.2     1  UNL1       -0.0389
     16 C         143.2504  142.9327  170.1780 C.3     1  UNL1        0.4184
     17 F         143.4320  144.0397  171.1738 F       1  UNL1       -0.1659
     18 F         141.7733  143.1932  170.1577 F       1  UNL1       -0.1659
     19 F         144.7274  142.6721  170.1982 F       1  UNL1       -0.1659
     20 C         142.7214  137.6647  159.0789 C.3     1  UNL1        0.0970
     21 C         142.2934  138.5956  157.9834 C.3     1  UNL1        0.1264
     22 C         138.8775  141.0403  159.5973 C.ar    1  UNL1        0.1593
     23 C         139.0316  142.5223  159.7696 C.ar    1  UNL1        0.1357
     24 N         140.3243  143.1895  159.4039 N.ar    1  UNL1       -0.2392
     25 C         141.4629  142.3747  158.8660 C.ar    1  UNL1        0.0975
     26 C         142.7556  143.0419  158.5003 C.ar    1  UNL1        0.0255
     27 C         143.8943  142.2270  157.9623 C.ar    1  UNL1        0.0623
     28 C         143.7402  140.7449  157.7900 C.ar    1  UNL1        0.2611
     29 O         144.8789  139.9301  157.2520 O.2     1  UNL1       -0.2670
     30 N         142.4475  140.0777  158.1557 N.ar    1  UNL1       -0.2926
     31 C         141.3088  140.8926  158.6937 C.ar    1  UNL1        0.0832
     32 C         140.0161  140.2254  159.0593 C.ar    1  UNL1        0.0573
     33 C         137.5567  139.3341  161.0445 C.3     1  UNL1        0.2525
     34 O         137.5848  140.3731  159.9630 O.3     1  UNL1       -0.4698
@<TRIPOS>BOND
     1    33    34    1
     2    34    22    1
     3    22    23   ar
     4    23    24   ar
     5    24    25   ar
     6    25    26   ar
     7    26    27   ar
     8    27    28   ar
     9    28    29    2
    10    28    30   ar
    11    30    21    1
    12    21    20    1
    13    20     1    1
    14     1     2    1
    15     2     3    1
    16     3     4    1
    17     4     7    1
    18     7     8    2
    19     8     9    1
    20     9    10    2
    21    10    11    1
    22    11    16    1
    23    16    17    1
    24    16    18    1
    25    16    19    1
    26    11    12    2
    27    12    13    1
    28    13    14    1
    29    14    15    2
    30     4     5    1
    31     5     6    1
    32    30    31   ar
    33    31    32   ar
    34    32    22   ar
    35    31    25   ar
    36     6     1    1
    37    15     7    1
    38    14     9    1
@<TRIPOS>MOLECULE
*****
 34 38 0 0 0
SMALL
GASTEIGER

@<TRIPOS>ATOM
      1 N         140.1112  141.7008  159.2827 N.3     1  UNL1       -0.2710
      2 C         139.6041  141.3084  157.9267 C.3     1  UNL1        0.0728
      3 C         140.0575  140.0236  157.2994 C.3     1  UNL1        0.0298
      4 C         141.0179  139.1311  158.0281 C.3     1  UNL1        0.1147
      5 C         141.5249  139.5235  159.3842 C.3     1  UNL1        0.0298
      6 C         141.0715  140.8084  160.0115 C.3     1  UNL1        0.0728
      7 C         141.4713  137.8462  157.4008 C.2     1  UNL1        0.3507
      8 N         142.5844  136.9694  157.8931 N.2     1  UNL1       -0.0351
      9 C         142.6923  135.7938  156.9677 C.2     1  UNL1        0.2317
     10 C         143.6081  134.6059  156.9565 C.2     1  UNL1        0.0537
     11 C         143.4776  133.5683  155.8812 C.2     1  UNL1        0.0714
     12 C         142.4312  133.7185  154.8170 C.2     1  UNL1       -0.0133
     13 C         141.5153  134.9065  154.8281 C.3     1  UNL1        0.1037
     14 C         141.6458  135.9441  155.9035 C.2     1  UNL1        0.2174
     15 N         140.8913  137.2125  156.1712 N.2     1  UNL1       -0.0389
     16 C         144.3934  132.3804  155.8701 C.3     1  UNL1        0.4184
     17 F         145.3093  131.1925  155.8590 F       1  UNL1       -0.1659
     18 F         144.9630  132.8073  157.1905 F       1  UNL1       -0.1659
     19 F         143.8238  131.9536  154.5497 F       1  UNL1       -0.1659
     20 C         139.6577  142.9858  159.9100 C.3     1  UNL1        0.0970
     21 C         138.5251  142.9815  160.8934 C.3     1  UNL1        0.1264
     22 C         138.6835  139.5427  163.7915 C.ar    1  UNL1        0.1593
     23 C         138.9512  139.7986  165.2450 C.ar    1  UNL1        0.1357
     24 N         139.1662  141.2008  165.7326 N.ar    1  UNL1       -0.2392
     25 C         139.1134  142.3470  164.7665 C.ar    1  UNL1        0.0975
     26 C         139.3283  143.7492  165.2541 C.ar    1  UNL1        0.0255
     27 C         139.2755  144.8955  164.2881 C.ar    1  UNL1        0.0623
     28 C         139.0077  144.6396  162.8344 C.ar    1  UNL1        0.2611
     29 O         138.9549  145.7859  161.8684 O.2     1  UNL1       -0.2670
     30 N         138.7928  143.2374  162.3469 N.ar    1  UNL1       -0.2926
     31 C         138.8456  142.0911  163.3130 C.ar    1  UNL1        0.0832
     32 C         138.6307  140.6889  162.8255 C.ar    1  UNL1        0.0573
     33 C         138.0389  137.8964  161.8878 C.3     1  UNL1        0.2525
     34 O         138.4686  138.1405  163.3040 O.3     1  UNL1       -0.4698
@<TRIPOS>BOND
     1    33    34    1
     2    34    22    1
     3    22    23   ar
     4    23    24   ar
     5    24    25   ar
     6    25    26   ar
     7    26    27   ar
     8    27    28   ar
     9    28    29    2
    10    28    30   ar
    11    30    21    1
    12    21    20    1
    13    20     1    1
    14     1     2    1
    15     2     3    1
    16     3     4    1
    17     4     7    1
    18     7     8    2
    19     8     9    1
    20     9    10    2
    21    10    11    1
    22    11    16    1
    23    16    17    1
    24    16    18    1
    25    16    19    1
    26    11    12    2
    27    12    13    1
    28    13    14    1
    29    14    15    2
    30     4     5    1
    31     5     6    1
    32    30    31   ar
    33    31    32   ar
    34    32    22   ar
    35    31    25   ar
    36     6     1    1
    37    15     7    1
    38    14     9    1
@<TRIPOS>MOLECULE
*****
 34 38 0 0 0
SMALL
GASTEIGER

@<TRIPOS>ATOM
      1 N         141.4520  138.7741  160.4426 N.3     1  UNL1       -0.2710
      2 C         140.3165  139.2638  161.2916 C.3     1  UNL1        0.0728
      3 C         140.5610  139.6527  162.7195 C.3     1  UNL1        0.0298
      4 C         141.9411  139.5519  163.2984 C.3     1  UNL1        0.1147
      5 C         143.0766  139.0622  162.4493 C.3     1  UNL1        0.0298
      6 C         142.8321  138.6733  161.0215 C.3     1  UNL1        0.0728
      7 C         142.1858  139.9408  164.7263 C.2     1  UNL1        0.3507
      8 N         142.5102  141.3190  165.2216 N.2     1  UNL1       -0.0351
      9 C         142.6739  141.2498  166.7110 C.2     1  UNL1        0.2317
     10 C         142.9974  142.2971  167.7350 C.2     1  UNL1        0.0537
     11 C         143.0976  141.9233  169.1842 C.2     1  UNL1        0.0714
     12 C         142.8743  140.5024  169.6095 C.2     1  UNL1       -0.0133
     13 C         142.5508  139.4550  168.5855 C.3     1  UNL1        0.1037
     14 C         142.4506  139.8287  167.1363 C.2     1  UNL1        0.2174
     15 N         142.1489  139.0198  165.9097 N.2     1  UNL1       -0.0389
     16 C         143.4211  142.9706  170.2081 C.3     1  UNL1        0.4184
     17 F         143.7447  144.0179  171.2322 F       1  UNL1       -0.1659
     18 F         144.8544  142.5282  170.2077 F       1  UNL1       -0.1659
     19 F         141.9878  143.4130  170.2085 F       1  UNL1       -0.1659
     20 C         141.2073  138.3853  159.0146 C.3     1  UNL1        0.0970
     21 C         141.2210  139.4313  157.9396 C.3     1  UNL1        0.1264
     22 C         141.9390  143.4250  159.8850 C.ar    1  UNL1        0.1593
     23 C         140.8721  144.4788  159.8502 C.ar    1  UNL1        0.1357
     24 N         139.5658  144.2013  159.1671 N.ar    1  UNL1       -0.2392
     25 C         139.3265  142.8701  158.5186 C.ar    1  UNL1        0.0975
     26 C         138.0202  142.5926  157.8355 C.ar    1  UNL1        0.0255
     27 C         137.7809  141.2614  157.1870 C.ar    1  UNL1        0.0623
     28 C         138.8478  140.2076  157.2217 C.ar    1  UNL1        0.2611
     29 O         138.6085  138.8764  156.5733 O.2     1  UNL1       -0.2670
     30 N         140.1541  140.4850  157.9049 N.ar    1  UNL1       -0.2926
     31 C         140.3934  141.8163  158.5533 C.ar    1  UNL1        0.0832
     32 C         141.6997  142.0938  159.2365 C.ar    1  UNL1        0.0573
     33 C         143.5083  143.1483  161.9369 C.3     1  UNL1        0.2525
     34 O         143.2453  143.7024  160.5681 O.3     1  UNL1       -0.4698
@<TRIPOS>BOND
     1    33    34    1
     2    34    22    1
     3    22    23   ar
     4    23    24   ar
     5    24    25   ar
     6    25    26   ar
     7    26    27   ar
     8    27    28   ar
     9    28    29    2
    10    28    30   ar
    11    30    21    1
    12    21    20    1
    13    20     1    1
    14     1     2    1
    15     2     3    1
    16     3     4    1
    17     4     7    1
    18     7     8    2
    19     8     9    1
    20     9    10    2
    21    10    11    1
    22    11    16    1
    23    16    17    1
    24    16    18    1
    25    16    19    1
    26    11    12    2
    27    12    13    1
    28    13    14    1
    29    14    15    2
    30     4     5    1
    31     5     6    1
    32    30    31   ar
    33    31    32   ar
    34    32    22   ar
    35    31    25   ar
    36     6     1    1
    37    15     7    1
    38    14     9    1
@<TRIPOS>MOLECULE
*****
 34 38 0 0 0
SMALL
GASTEIGER

@<TRIPOS>ATOM
      1 N         141.4407  141.6931  160.4422 N.3     1  UNL1       -0.2710
      2 C         140.4645  140.5616  160.5708 C.3     1  UNL1        0.0728
      3 C         140.6513  139.3139  159.7595 C.3     1  UNL1        0.0298
      4 C         141.8144  139.1977  158.8195 C.3     1  UNL1        0.1147
      5 C         142.7907  140.3292  158.6908 C.3     1  UNL1        0.0298
      6 C         142.6038  141.5769  159.5022 C.3     1  UNL1        0.0728
      7 C         142.0012  137.9499  158.0081 C.2     1  UNL1        0.3507
      8 N         143.0704  136.9176  158.2118 N.2     1  UNL1       -0.0351
      9 C         142.8817  135.8451  157.1802 C.2     1  UNL1        0.2317
     10 C         143.6364  134.5799  156.8982 C.2     1  UNL1        0.0537
     11 C         143.2054  133.6840  155.7749 C.2     1  UNL1        0.0714
     12 C         142.0197  134.0534  154.9338 C.2     1  UNL1       -0.0133
     13 C         141.2649  135.3187  155.2158 C.3     1  UNL1        0.1037
     14 C         141.6959  136.2146  156.3390 C.2     1  UNL1        0.2174
     15 N         141.1518  137.5154  156.8507 N.2     1  UNL1       -0.0389
     16 C         143.9600  132.4188  155.4929 C.3     1  UNL1        0.4184
     17 F         144.7148  131.1535  155.2109 F       1  UNL1       -0.1659
     18 F         144.7883  132.6384  156.7241 F       1  UNL1       -0.1659
     19 F         143.1318  132.1992  154.2618 F       1  UNL1       -0.1659
     20 C         141.2539  142.9408  161.2535 C.3     1  UNL1        0.0970
     21 C         141.7100  142.9819  162.6819 C.3     1  UNL1        0.1264
     22 C         141.2176  139.0824  164.8732 C.ar    1  UNL1        0.1593
     23 C         142.4267  138.3025  165.2971 C.ar    1  UNL1        0.1357
     24 N         143.8000  138.8224  164.9907 N.ar    1  UNL1       -0.2392
     25 C         143.9641  140.1222  164.2602 C.ar    1  UNL1        0.0975
     26 C         145.3374  140.6421  163.9538 C.ar    1  UNL1        0.0255
     27 C         145.5015  141.9419  163.2234 C.ar    1  UNL1        0.0623
     28 C         144.2923  142.7219  162.7994 C.ar    1  UNL1        0.2611
     29 O         144.4565  144.0217  162.0690 O.2     1  UNL1       -0.2670
     30 N         142.9191  142.2020  163.1059 N.ar    1  UNL1       -0.2926
     31 C         142.7550  140.9021  163.8363 C.ar    1  UNL1        0.0832
     32 C         141.3818  140.3822  164.1428 C.ar    1  UNL1        0.0573
     33 C         138.8571  138.3524  164.0701 C.3     1  UNL1        0.2525
     34 O         139.8444  138.5625  165.1796 O.3     1  UNL1       -0.4698
@<TRIPOS>BOND
     1    33    34    1
     2    34    22    1
     3    22    23   ar
     4    23    24   ar
     5    24    25   ar
     6    25    26   ar
     7    26    27   ar
     8    27    28   ar
     9    28    29    2
    10    28    30   ar
    11    30    21    1
    12    21    20    1
    13    20     1    1
    14     1     2    1
    15     2     3    1
    16     3     4    1
    17     4     7    1
    18     7     8    2
    19     8     9    1
    20     9    10    2
    21    10    11    1
    22    11    16    1
    23    16    17    1
    24    16    18    1
    25    16    19    1
    26    11    12    2
    27    12    13    1
    28    13    14    1
    29    14    15    2
    30     4     5    1
    31     5     6    1
    32    30    31   ar
    33    31    32   ar
    34    32    22   ar
    35    31    25   ar
    36     6     1    1
    37    15     7    1
    38    14     9    1
@<TRIPOS>MOLECULE
*****
 34 38 0 0 0
SMALL
GASTEIGER

@<TRIPOS>ATOM
      1 N         143.6363  141.4315  163.3865 N.3     1  UNL1       -0.2710
      2 C         142.4062  142.2891  163.4242 C.3     1  UNL1        0.0728
      3 C         141.9726  143.0328  162.1959 C.3     1  UNL1        0.0298
      4 C         142.7690  142.9189  160.9299 C.3     1  UNL1        0.1147
      5 C         143.9990  142.0612  160.8923 C.3     1  UNL1        0.0298
      6 C         144.4327  141.3175  162.1206 C.3     1  UNL1        0.0728
      7 C         142.3353  143.6626  159.7015 C.2     1  UNL1        0.3507
      8 N         141.3141  144.7601  159.6498 N.2     1  UNL1       -0.0351
      9 C         141.1944  145.2152  158.2256 C.2     1  UNL1        0.2317
     10 C         140.3452  146.2673  157.5760 C.2     1  UNL1        0.0537
     11 C         140.4433  146.5033  156.0980 C.2     1  UNL1        0.0714
     12 C         141.3905  145.6871  155.2694 C.2     1  UNL1       -0.0133
     13 C         142.2398  144.6349  155.9189 C.3     1  UNL1        0.1037
     14 C         142.1417  144.3990  157.3970 C.2     1  UNL1        0.2174
     15 N         142.8468  143.4395  158.3092 N.2     1  UNL1       -0.0389
     16 C         139.5941  147.5554  155.4485 C.3     1  UNL1        0.4184
     17 F         138.7450  148.6076  154.7989 F       1  UNL1       -0.1659
     18 F         140.3765  147.4024  154.1778 F       1  UNL1       -0.1659
     19 F         138.8118  147.7084  156.7191 F       1  UNL1       -0.1659
     20 C         144.0699  140.6878  164.6150 C.3     1  UNL1        0.0970
     21 C         143.6358  139.2673  164.8240 C.3     1  UNL1        0.1264
     22 C         139.7202  139.6811  167.0027 C.ar    1  UNL1        0.1593
     23 C         138.4542  139.1831  166.3710 C.ar    1  UNL1        0.1357
     24 N         138.4933  138.5471  165.0131 N.ar    1  UNL1       -0.2392
     25 C         139.7985  138.4092  164.2869 C.ar    1  UNL1        0.0975
     26 C         139.8376  137.7732  162.9289 C.ar    1  UNL1        0.0255
     27 C         141.1428  137.6352  162.2027 C.ar    1  UNL1        0.0623
     28 C         142.4089  138.1333  162.8344 C.ar    1  UNL1        0.2611
     29 O         143.7140  137.9953  162.1081 O.2     1  UNL1       -0.2670
     30 N         142.3698  138.7692  164.1923 N.ar    1  UNL1       -0.2926
     31 C         141.0645  138.9072  164.9186 C.ar    1  UNL1        0.0832
     32 C         141.0254  139.5432  166.2765 C.ar    1  UNL1        0.0573
     33 C         140.6538  139.8872  169.4185 C.3     1  UNL1        0.2525
     34 O         139.6811  140.3171  168.3607 O.3     1  UNL1       -0.4698
@<TRIPOS>BOND
     1    33    34    1
     2    34    22    1
     3    22    23   ar
     4    23    24   ar
     5    24    25   ar
     6    25    26   ar
     7    26    27   ar
     8    27    28   ar
     9    28    29    2
    10    28    30   ar
    11    30    21    1
    12    21    20    1
    13    20     1    1
    14     1     2    1
    15     2     3    1
    16     3     4    1
    17     4     7    1
    18     7     8    2
    19     8     9    1
    20     9    10    2
    21    10    11    1
    22    11    16    1
    23    16    17    1
    24    16    18    1
    25    16    19    1
    26    11    12    2
    27    12    13    1
    28    13    14    1
    29    14    15    2
    30     4     5    1
    31     5     6    1
    32    30    31   ar
    33    31    32   ar
    34    32    22   ar
    35    31    25   ar
    36     6     1    1
    37    15     7    1
    38    14     9    1
@<TRIPOS>MOLECULE
*****
 34 38 0 0 0
SMALL
GASTEIGER

@<TRIPOS>ATOM
      1 N         143.0868  140.7504  163.9635 N.3     1  UNL1       -0.2710
      2 C         142.8175  141.5789  162.7424 C.3     1  UNL1        0.0728
      3 C         142.5072  140.9105  161.4360 C.3     1  UNL1        0.0298
      4 C         142.4662  139.4135  161.3506 C.3     1  UNL1        0.1147
      5 C         142.7355  138.5850  162.5717 C.3     1  UNL1        0.0298
      6 C         143.0458  139.2534  163.8781 C.3     1  UNL1        0.0728
      7 C         142.1559  138.7450  160.0441 C.2     1  UNL1        0.3507
      8 N         143.0980  137.8971  159.2419 N.2     1  UNL1       -0.0351
      9 C         142.3734  137.4351  158.0125 C.2     1  UNL1        0.2317
     10 C         142.7997  136.5750  156.8599 C.2     1  UNL1        0.0537
     11 C         141.8360  136.2772  155.7497 C.2     1  UNL1        0.0714
     12 C         140.4460  136.8394  155.7921 C.2     1  UNL1       -0.0133
     13 C         140.0197  137.6995  156.9447 C.3     1  UNL1        0.1037
     14 C         140.9834  137.9973  158.0549 C.2     1  UNL1        0.2174
     15 N         140.8490  138.8069  159.3105 N.2     1  UNL1       -0.0389
     16 C         142.2622  135.4171  154.5970 C.3     1  UNL1        0.4184
     17 F         142.6885  134.5570  153.4444 F       1  UNL1       -0.1659
     18 F         143.2977  134.7663  155.4657 F       1  UNL1       -0.1659
     19 F         141.2268  136.0679  153.7285 F       1  UNL1       -0.1659
     20 C         143.3971  141.4189  165.2700 C.3     1  UNL1        0.0970
     21 C         142.3258  142.1746  165.9988 C.3     1  UNL1        0.1264
     22 C         138.6885  139.6038  165.3582 C.ar    1  UNL1        0.1593
     23 C         137.9960  138.9782  166.5325 C.ar    1  UNL1        0.1357
     24 N         138.5159  139.2095  167.9203 N.ar    1  UNL1       -0.2392
     25 C         139.7284  140.0664  168.1339 C.ar    1  UNL1        0.0975
     26 C         140.2483  140.2977  169.5218 C.ar    1  UNL1        0.0255
     27 C         141.4608  141.1546  169.7353 C.ar    1  UNL1        0.0623
     28 C         142.1533  141.7803  168.5610 C.ar    1  UNL1        0.2611
     29 O         143.3657  142.6372  168.7745 O.2     1  UNL1       -0.2670
     30 N         141.6334  141.5490  167.1731 N.ar    1  UNL1       -0.2926
     31 C         140.4208  140.6920  166.9596 C.ar    1  UNL1        0.0832
     32 C         139.9009  140.4607  165.5718 C.ar    1  UNL1        0.0573
     33 C         139.0239  138.6733  162.9558 C.3     1  UNL1        0.2525
     34 O         138.1685  139.3725  163.9703 O.3     1  UNL1       -0.4698
@<TRIPOS>BOND
     1    33    34    1
     2    34    22    1
     3    22    23   ar
     4    23    24   ar
     5    24    25   ar
     6    25    26   ar
     7    26    27   ar
     8    27    28   ar
     9    28    29    2
    10    28    30   ar
    11    30    21    1
    12    21    20    1
    13    20     1    1
    14     1     2    1
    15     2     3    1
    16     3     4    1
    17     4     7    1
    18     7     8    2
    19     8     9    1
    20     9    10    2
    21    10    11    1
    22    11    16    1
    23    16    17    1
    24    16    18    1
    25    16    19    1
    26    11    12    2
    27    12    13    1
    28    13    14    1
    29    14    15    2
    30     4     5    1
    31     5     6    1
    32    30    31   ar
    33    31    32   ar
    34    32    22   ar
    35    31    25   ar
    36     6     1    1
    37    15     7    1
    38    14     9    1
