@<TRIPOS>MOLECULE
*****
 37 40 0 0 0
SMALL
GASTEIGER

@<TRIPOS>ATOM
      1 C         142.3501  140.3816  160.9885 C.2     1  UNL1        0.1397
      2 C         143.0900  140.9363  159.8075 C.2     1  UNL1        0.1355
      3 N         143.2672  140.1016  158.5738 N.pl3   1  UNL1       -0.1998
      4 C         142.7044  138.7122  158.5212 C.2     1  UNL1        0.3442
      5 N         141.9645  138.1575  159.7021 N.2     1  UNL1       -0.0580
      6 C         141.7873  138.9922  160.9358 C.3     1  UNL1        0.2692
      7 H         143.7528  140.4658  157.7987 H       1  UNL1        0.2983
      8 C         141.0473  138.4374  162.1168 C.ar    1  UNL1        0.0371
      9 C         141.8040  137.7971  163.2427 C.ar    1  UNL1        0.0030
     10 C         141.0641  137.2423  164.4236 C.ar    1  UNL1        0.0295
     11 C         139.5675  137.3278  164.4788 C.ar    1  UNL1        0.1406
     12 F         138.8276  136.7730  165.6597 F       1  UNL1       -0.2042
     13 C         138.8109  137.9681  163.3529 C.ar    1  UNL1        0.0362
     14 C         139.5508  138.5229  162.1719 C.ar    1  UNL1        0.0372
     15 BR        138.7942  139.1632  161.0460 Br      1  UNL1       -0.0491
     16 C         142.8816  137.8776  157.2875 C.ar    1  UNL1        0.1931
     17 N         144.0132  137.9806  156.3083 N.ar    1  UNL1       -0.2297
     18 C         143.7893  136.9600  155.2320 C.ar    1  UNL1        0.1067
     19 C         142.5193  136.2262  155.5461 C.ar    1  UNL1        0.0577
     20 S         141.9583  136.7933  156.8164 S.2     1  UNL1       -0.0586
     21 C         142.1729  141.2163  162.2221 C.2     1  UNL1        0.3447
     22 O         140.8502  141.8644  162.5056 O.2     1  UNL1       -0.2450
     23 O         143.3184  141.4028  163.1724 O.3     1  UNL1       -0.4455
     24 C         144.8919  139.6796  164.3147 C.3     1  UNL1        0.0513
     25 C         144.5021  140.4836  163.1098 C.3     1  UNL1        0.2089
     26 C         143.6528  142.3258  159.8602 C.3     1  UNL1        0.1405
     27 N         142.8269  143.4877  159.3933 N.3     1  UNL1       -0.2618
     28 C         142.9607  143.9850  157.9845 C.3     1  UNL1        0.1050
     29 C         142.1348  145.1469  157.5177 C.3     1  UNL1        0.1594
     30 O         141.1752  145.8115  158.4597 O.3     1  UNL1       -0.3533
     31 C         141.0414  145.3142  159.8685 C.3     1  UNL1        0.1316
     32 C         141.8672  144.1523  160.3353 C.3     1  UNL1        0.1024
     33 C         140.0817  145.9787  160.8105 C.3     1  UNL1        0.0369
     34 C         140.1725  145.7138  162.2842 C.3     1  UNL1        0.0442
     35 C         139.0795  144.9570  162.9788 C.2     1  UNL1        0.0504
     36 O         138.0848  144.1710  162.1770 O.co2   1  UNL1       -0.5492
     37 O         138.9812  144.9862  164.4753 O.co2   1  UNL1       -0.5492
@<TRIPOS>UNITY_ATOM_ATTR
36 1
charge -1
@<TRIPOS>BOND
     1    24    25    1
     2    25    23    1
     3    23    21    1
     4    21    22    2
     5    21     1    1
     6     1     2    2
     7     2    26    1
     8    26    27    1
     9    27    28    1
    10    28    29    1
    11    29    30    1
    12    30    31    1
    13    31    33    1
    14    33    34    1
    15    34    35    1
    16    35    36   ar
    17    35    37   ar
    18    31    32    1
    19     2     3    1
    20     3     4    1
    21     4    16    1
    22    16    17   ar
    23    17    18   ar
    24    18    19   ar
    25    19    20   ar
    26     4     5    2
    27     5     6    1
    28     6     8    1
    29     8     9   ar
    30     9    10   ar
    31    10    11   ar
    32    11    12    1
    33    11    13   ar
    34    13    14   ar
    35    14    15    1
    36     6     1    1
    37    14     8   ar
    38    32    27    1
    39    20    16   ar
    40     3     7    1
@<TRIPOS>MOLECULE
*****
 37 40 0 0 0
SMALL
GASTEIGER

@<TRIPOS>ATOM
      1 C         143.2335  141.3588  161.4059 C.2     1  UNL1        0.1397
      2 C         143.1163  141.7772  159.9702 C.2     1  UNL1        0.1355
      3 N         142.7764  140.7629  158.9187 N.pl3   1  UNL1       -0.1998
      4 C         142.5535  139.3302  159.3029 C.2     1  UNL1        0.3442
      5 N         142.6707  138.9118  160.7386 N.2     1  UNL1       -0.0580
      6 C         143.0106  139.9261  161.7900 C.3     1  UNL1        0.2692
      7 H         142.6995  141.0375  157.9765 H       1  UNL1        0.2983
      8 C         143.1278  139.5076  163.2258 C.ar    1  UNL1        0.0371
      9 C         144.4758  139.2099  163.8126 C.ar    1  UNL1        0.0030
     10 C         144.5929  138.7915  165.2483 C.ar    1  UNL1        0.0295
     11 C         143.3621  138.6706  166.0971 C.ar    1  UNL1        0.1406
     12 F         143.4793  138.2522  167.5328 F       1  UNL1       -0.2042
     13 C         142.0141  138.9683  165.5103 C.ar    1  UNL1        0.0362
     14 C         141.8970  139.3868  164.0746 C.ar    1  UNL1        0.0372
     15 BR        140.5490  139.6844  163.4877 Br      1  UNL1       -0.0491
     16 C         142.2136  138.3159  158.2514 C.ar    1  UNL1        0.1931
     17 N         143.0608  137.1454  157.8487 N.ar    1  UNL1       -0.2297
     18 C         142.3376  136.4001  156.7664 C.ar    1  UNL1        0.1067
     19 C         141.0432  137.1099  156.5002 C.ar    1  UNL1        0.0577
     20 S         140.9666  138.2939  157.4180 S.2     1  UNL1       -0.0586
     21 C         143.5734  142.3731  162.4574 C.2     1  UNL1        0.3447
     22 O         145.0076  142.7129  162.7358 O.2     1  UNL1       -0.2450
     23 O         142.4792  143.0476  163.2304 O.3     1  UNL1       -0.4455
     24 C         141.1701  142.9352  165.4718 C.3     1  UNL1        0.0513
     25 C         142.4724  142.9866  164.7292 C.3     1  UNL1        0.2089
     26 C         143.3392  143.2100  159.5860 C.3     1  UNL1        0.1405
     27 N         142.1697  144.1379  159.4399 N.3     1  UNL1       -0.2618
     28 C         141.6826  144.5213  158.0740 C.3     1  UNL1        0.1050
     29 C         140.5131  145.4493  157.9280 C.3     1  UNL1        0.1594
     30 O         139.8308  145.9937  159.1478 O.3     1  UNL1       -0.3533
     31 C         140.3180  145.6103  160.5137 C.3     1  UNL1        0.1316
     32 C         141.4874  144.6824  160.6598 C.3     1  UNL1        0.1024
     33 C         139.6357  146.1548  161.7335 C.3     1  UNL1        0.0369
     34 C         139.5193  145.3102  162.9677 C.3     1  UNL1        0.0442
     35 C         138.4138  144.3033  163.0858 C.2     1  UNL1        0.0504
     36 O         137.8870  143.6204  161.8586 O.co2   1  UNL1       -0.5492
     37 O         137.8353  143.9791  164.4312 O.co2   1  UNL1       -0.5492
@<TRIPOS>UNITY_ATOM_ATTR
36 1
charge -1
@<TRIPOS>BOND
     1    24    25    1
     2    25    23    1
     3    23    21    1
     4    21    22    2
     5    21     1    1
     6     1     2    2
     7     2    26    1
     8    26    27    1
     9    27    28    1
    10    28    29    1
    11    29    30    1
    12    30    31    1
    13    31    33    1
    14    33    34    1
    15    34    35    1
    16    35    36   ar
    17    35    37   ar
    18    31    32    1
    19     2     3    1
    20     3     4    1
    21     4    16    1
    22    16    17   ar
    23    17    18   ar
    24    18    19   ar
    25    19    20   ar
    26     4     5    2
    27     5     6    1
    28     6     8    1
    29     8     9   ar
    30     9    10   ar
    31    10    11   ar
    32    11    12    1
    33    11    13   ar
    34    13    14   ar
    35    14    15    1
    36     6     1    1
    37    14     8   ar
    38    32    27    1
    39    20    16   ar
    40     3     7    1
@<TRIPOS>MOLECULE
*****
 37 40 0 0 0
SMALL
GASTEIGER

@<TRIPOS>ATOM
      1 C         139.2037  141.6255  160.7982 C.2     1  UNL1        0.1397
      2 C         139.3554  141.0727  159.4121 C.2     1  UNL1        0.1355
      3 N         139.5434  142.0026  158.2502 N.pl3   1  UNL1       -0.1998
      4 C         139.5796  143.4852  158.4744 C.2     1  UNL1        0.3442
      5 N         139.4278  144.0381  159.8605 N.2     1  UNL1       -0.0580
      6 C         139.2399  143.1082  161.0224 C.3     1  UNL1        0.2692
      7 H         139.6429  141.6397  157.3405 H       1  UNL1        0.2983
      8 C         139.0882  143.6611  162.4086 C.ar    1  UNL1        0.0371
      9 C         137.7219  143.8216  163.0066 C.ar    1  UNL1        0.0030
     10 C         137.5702  144.3745  164.3927 C.ar    1  UNL1        0.0295
     11 C         138.7847  144.7668  165.1808 C.ar    1  UNL1        0.1406
     12 F         138.6329  145.3197  166.5669 F       1  UNL1       -0.2042
     13 C         140.1509  144.6063  164.5828 C.ar    1  UNL1        0.0362
     14 C         140.3026  144.0534  163.1966 C.ar    1  UNL1        0.0372
     15 BR        141.6689  143.8929  162.5986 Br      1  UNL1       -0.0491
     16 C         139.7675  144.4151  157.3125 C.ar    1  UNL1        0.1931
     17 N         140.4195  145.7651  157.3601 N.ar    1  UNL1       -0.2297
     18 C         140.3914  146.3426  155.9760 C.ar    1  UNL1        0.1067
     19 C         139.7220  145.3495  155.0729 C.ar    1  UNL1        0.0577
     20 S         139.3364  144.1582  155.8989 S.2     1  UNL1       -0.0586
     21 C         139.0158  140.6957  161.9601 C.2     1  UNL1        0.3447
     22 O         137.6716  140.0830  162.2206 O.2     1  UNL1       -0.2450
     23 O         140.1719  140.3785  162.8616 O.3     1  UNL1       -0.4455
     24 C         139.2649  141.0366  165.2056 C.3     1  UNL1        0.0513
     25 C         139.9286  140.0396  164.3024 C.3     1  UNL1        0.2089
     26 C         139.3192  139.5900  159.1879 C.3     1  UNL1        0.1405
     27 N         140.5982  138.8270  159.0093 N.3     1  UNL1       -0.2618
     28 C         140.9406  138.2395  157.6723 C.3     1  UNL1        0.1050
     29 C         142.2197  137.4765  157.4937 C.3     1  UNL1        0.1594
     30 O         143.1563  137.3010  158.6521 O.3     1  UNL1       -0.3533
     31 C         142.8139  137.8885  159.9891 C.3     1  UNL1        0.1316
     32 C         141.5349  138.6515  160.1677 C.3     1  UNL1        0.1024
     33 C         143.7505  137.7130  161.1475 C.3     1  UNL1        0.0369
     34 C         143.5220  138.4755  162.4190 C.3     1  UNL1        0.0442
     35 C         144.3506  139.6875  162.7260 C.2     1  UNL1        0.0504
     36 O         145.1180  139.7652  164.0125 O.co2   1  UNL1       -0.5492
     37 O         144.4118  140.8218  161.7465 O.co2   1  UNL1       -0.5492
@<TRIPOS>UNITY_ATOM_ATTR
36 1
charge -1
@<TRIPOS>BOND
     1    24    25    1
     2    25    23    1
     3    23    21    1
     4    21    22    2
     5    21     1    1
     6     1     2    2
     7     2    26    1
     8    26    27    1
     9    27    28    1
    10    28    29    1
    11    29    30    1
    12    30    31    1
    13    31    33    1
    14    33    34    1
    15    34    35    1
    16    35    36   ar
    17    35    37   ar
    18    31    32    1
    19     2     3    1
    20     3     4    1
    21     4    16    1
    22    16    17   ar
    23    17    18   ar
    24    18    19   ar
    25    19    20   ar
    26     4     5    2
    27     5     6    1
    28     6     8    1
    29     8     9   ar
    30     9    10   ar
    31    10    11   ar
    32    11    12    1
    33    11    13   ar
    34    13    14   ar
    35    14    15    1
    36     6     1    1
    37    14     8   ar
    38    32    27    1
    39    20    16   ar
    40     3     7    1
@<TRIPOS>MOLECULE
*****
 37 40 0 0 0
SMALL
GASTEIGER

@<TRIPOS>ATOM
      1 C         141.9290  140.0709  164.0719 C.2     1  UNL1        0.1397
      2 C         142.2742  140.3411  162.6374 C.2     1  UNL1        0.1355
      3 N         141.8515  141.6284  161.9939 N.pl3   1  UNL1       -0.1998
      4 C         141.0836  142.6455  162.7849 C.2     1  UNL1        0.3442
      5 N         140.7384  142.3753  164.2194 N.2     1  UNL1       -0.0580
      6 C         141.1611  141.0880  164.8629 C.3     1  UNL1        0.2692
      7 H         142.0781  141.8057  161.0524 H       1  UNL1        0.2983
      8 C         140.8159  140.8178  166.2975 C.ar    1  UNL1        0.0371
      9 C         139.5522  140.0858  166.6397 C.ar    1  UNL1        0.0030
     10 C         139.2069  139.8156  168.0741 C.ar    1  UNL1        0.0295
     11 C         140.1254  140.2775  169.1665 C.ar    1  UNL1        0.1406
     12 F         139.7801  140.0073  170.6010 F       1  UNL1       -0.2042
     13 C         141.3891  141.0096  168.8243 C.ar    1  UNL1        0.0362
     14 C         141.7343  141.2797  167.3897 C.ar    1  UNL1        0.0372
     15 BR        142.9980  142.0118  167.0475 Br      1  UNL1       -0.0491
     16 C         140.6609  143.9329  162.1414 C.ar    1  UNL1        0.1931
     17 N         140.8671  144.3095  160.7042 N.ar    1  UNL1       -0.2297
     18 C         140.2914  145.6790  160.4967 C.ar    1  UNL1        0.1067
     19 C         139.7294  146.1488  161.8057 C.ar    1  UNL1        0.0577
     20 S         139.9578  145.0696  162.8221 S.2     1  UNL1       -0.0586
     21 C         142.3517  138.7835  164.7154 C.2     1  UNL1        0.3447
     22 O         143.6444  138.7128  165.4730 O.2     1  UNL1       -0.2450
     23 O         141.4818  137.5669  164.6013 O.3     1  UNL1       -0.4455
     24 C         138.9308  137.6177  164.1117 C.3     1  UNL1        0.0513
     25 C         140.3465  137.5460  163.6211 C.3     1  UNL1        0.2089
     26 C         143.0422  139.3239  161.8464 C.3     1  UNL1        0.1405
     27 N         143.0206  139.3675  160.3472 N.3     1  UNL1       -0.2618
     28 C         143.9119  140.3240  159.6118 C.3     1  UNL1        0.1050
     29 C         143.8903  140.3676  158.1125 C.3     1  UNL1        0.1594
     30 O         142.9775  139.4547  157.3487 O.3     1  UNL1       -0.3533
     31 C         142.0862  138.4983  158.0841 C.3     1  UNL1        0.1316
     32 C         142.1077  138.4546  159.5833 C.3     1  UNL1        0.1024
     33 C         141.1733  137.5854  157.3204 C.3     1  UNL1        0.0369
     34 C         141.7458  136.5743  156.3716 C.3     1  UNL1        0.0442
     35 C         143.1323  136.0442  156.5873 C.2     1  UNL1        0.0504
     36 O         144.3009  136.7070  155.9201 O.co2   1  UNL1       -0.5492
     37 O         143.3502  134.8514  157.4702 O.co2   1  UNL1       -0.5492
@<TRIPOS>UNITY_ATOM_ATTR
36 1
charge -1
@<TRIPOS>BOND
     1    24    25    1
     2    25    23    1
     3    23    21    1
     4    21    22    2
     5    21     1    1
     6     1     2    2
     7     2    26    1
     8    26    27    1
     9    27    28    1
    10    28    29    1
    11    29    30    1
    12    30    31    1
    13    31    33    1
    14    33    34    1
    15    34    35    1
    16    35    36   ar
    17    35    37   ar
    18    31    32    1
    19     2     3    1
    20     3     4    1
    21     4    16    1
    22    16    17   ar
    23    17    18   ar
    24    18    19   ar
    25    19    20   ar
    26     4     5    2
    27     5     6    1
    28     6     8    1
    29     8     9   ar
    30     9    10   ar
    31    10    11   ar
    32    11    12    1
    33    11    13   ar
    34    13    14   ar
    35    14    15    1
    36     6     1    1
    37    14     8   ar
    38    32    27    1
    39    20    16   ar
    40     3     7    1
@<TRIPOS>MOLECULE
*****
 37 40 0 0 0
SMALL
GASTEIGER

@<TRIPOS>ATOM
      1 C         142.9299  140.2053  160.5361 C.2     1  UNL1        0.1397
      2 C         143.3362  138.7862  160.8025 C.2     1  UNL1        0.1355
      3 N         143.0974  137.7302  159.7644 N.pl3   1  UNL1       -0.1998
      4 C         142.4524  138.0932  158.4598 C.2     1  UNL1        0.3442
      5 N         142.0461  139.5123  158.1933 N.2     1  UNL1       -0.0580
      6 C         142.2849  140.5684  159.2315 C.3     1  UNL1        0.2692
      7 H         143.3641  136.7987  159.9393 H       1  UNL1        0.2983
      8 C         141.8786  141.9875  158.9650 C.ar    1  UNL1        0.0371
      9 C         140.5029  142.4561  159.3363 C.ar    1  UNL1        0.0030
     10 C         140.0966  143.8752  159.0699 C.ar    1  UNL1        0.0295
     11 C         141.0660  144.8258  158.4320 C.ar    1  UNL1        0.1406
     12 F         140.6597  146.2449  158.1656 F       1  UNL1       -0.2042
     13 C         142.4417  144.3572  158.0607 C.ar    1  UNL1        0.0362
     14 C         142.8480  142.9380  158.3272 C.ar    1  UNL1        0.0372
     15 BR        144.2237  142.4694  157.9559 Br      1  UNL1       -0.0491
     16 C         142.2136  137.0372  157.4216 C.ar    1  UNL1        0.1931
     17 N         143.0000  135.7708  157.2550 N.ar    1  UNL1       -0.2297
     18 C         142.4189  135.0131  156.0982 C.ar    1  UNL1        0.1067
     19 C         141.2734  135.8112  155.5498 C.ar    1  UNL1        0.0577
     20 S         141.1466  137.0622  156.3677 S.2     1  UNL1       -0.0586
     21 C         143.1687  141.2613  161.5743 C.2     1  UNL1        0.3447
     22 O         142.0969  141.5889  162.5712 O.2     1  UNL1       -0.2450
     23 O         144.4793  141.9898  161.6155 O.3     1  UNL1       -0.4455
     24 C         145.0882  142.4758  164.0940 C.3     1  UNL1        0.0513
     25 C         145.4002  141.8111  162.7860 C.3     1  UNL1        0.2089
     26 C         143.9813  138.4230  162.1072 C.3     1  UNL1        0.1405
     27 N         143.1988  138.5197  163.3833 N.3     1  UNL1       -0.2618
     28 C         143.8541  139.0429  164.6270 C.3     1  UNL1        0.1050
     29 C         143.0715  139.1395  165.9032 C.3     1  UNL1        0.1594
     30 O         141.6339  138.7129  165.9355 O.3     1  UNL1       -0.3533
     31 C         140.9786  138.1897  164.6917 C.3     1  UNL1        0.1316
     32 C         141.7611  138.0931  163.4156 C.3     1  UNL1        0.1024
     33 C         139.5410  137.7632  164.7240 C.3     1  UNL1        0.0369
     34 C         138.4905  138.7048  165.2339 C.3     1  UNL1        0.0442
     35 C         138.1158  138.6951  166.6863 C.2     1  UNL1        0.0504
     36 O         136.9578  137.8657  167.1565 O.co2   1  UNL1       -0.5492
     37 O         138.8989  139.5149  167.6683 O.co2   1  UNL1       -0.5492
@<TRIPOS>UNITY_ATOM_ATTR
36 1
charge -1
@<TRIPOS>BOND
     1    24    25    1
     2    25    23    1
     3    23    21    1
     4    21    22    2
     5    21     1    1
     6     1     2    2
     7     2    26    1
     8    26    27    1
     9    27    28    1
    10    28    29    1
    11    29    30    1
    12    30    31    1
    13    31    33    1
    14    33    34    1
    15    34    35    1
    16    35    36   ar
    17    35    37   ar
    18    31    32    1
    19     2     3    1
    20     3     4    1
    21     4    16    1
    22    16    17   ar
    23    17    18   ar
    24    18    19   ar
    25    19    20   ar
    26     4     5    2
    27     5     6    1
    28     6     8    1
    29     8     9   ar
    30     9    10   ar
    31    10    11   ar
    32    11    12    1
    33    11    13   ar
    34    13    14   ar
    35    14    15    1
    36     6     1    1
    37    14     8   ar
    38    32    27    1
    39    20    16   ar
    40     3     7    1
@<TRIPOS>MOLECULE
*****
 37 40 0 0 0
SMALL
GASTEIGER

@<TRIPOS>ATOM
      1 C         141.0039  140.0053  160.7374 C.2     1  UNL1        0.1397
      2 C         140.6368  140.2332  159.3010 C.2     1  UNL1        0.1355
      3 N         141.2645  139.3978  158.2248 N.pl3   1  UNL1       -0.1998
      4 C         142.2593  138.3345  158.5851 C.2     1  UNL1        0.3442
      5 N         142.6264  138.1066  160.0215 N.2     1  UNL1       -0.0580
      6 C         141.9987  138.9420  161.0976 C.3     1  UNL1        0.2692
      7 H         141.0236  139.5474  157.2821 H       1  UNL1        0.2983
      8 C         142.3658  138.7141  162.5341 C.ar    1  UNL1        0.0371
      9 C         141.5372  137.7964  163.3834 C.ar    1  UNL1        0.0030
     10 C         141.9043  137.5685  164.8198 C.ar    1  UNL1        0.0295
     11 C         143.1000  138.2582  165.4069 C.ar    1  UNL1        0.1406
     12 F         143.4671  138.0303  166.8433 F       1  UNL1       -0.2042
     13 C         143.9286  139.1759  164.5576 C.ar    1  UNL1        0.0362
     14 C         143.5614  139.4038  163.1212 C.ar    1  UNL1        0.0372
     15 BR        144.3900  140.3215  162.2718 Br      1  UNL1       -0.0491
     16 C         142.8870  137.4991  157.5089 C.ar    1  UNL1        0.1931
     17 N         143.7163  138.0091  156.3678 N.ar    1  UNL1       -0.2297
     18 C         144.1375  136.8322  155.5386 C.ar    1  UNL1        0.1067
     19 C         143.5684  135.5949  156.1672 C.ar    1  UNL1        0.0577
     20 S         142.7956  136.0071  157.3849 S.2     1  UNL1       -0.0586
     21 C         140.3762  140.8407  161.8135 C.2     1  UNL1        0.3447
     22 O         141.1757  141.9125  162.4933 O.2     1  UNL1       -0.2450
     23 O         138.9490  140.6043  162.2100 O.3     1  UNL1       -0.4455
     24 C         137.8805  138.2828  161.7423 C.3     1  UNL1        0.0513
     25 C         138.5192  139.2510  162.6935 C.3     1  UNL1        0.2089
     26 C         139.6420  141.2965  158.9407 C.3     1  UNL1        0.1405
     27 N         140.0760  142.7294  158.8486 N.3     1  UNL1       -0.2618
     28 C         140.8119  143.2136  157.6344 C.3     1  UNL1        0.1050
     29 C         141.2459  144.6465  157.5424 C.3     1  UNL1        0.1594
     30 O         140.9441  145.5952  158.6643 O.3     1  UNL1       -0.3533
     31 C         140.2082  145.1110  159.8785 C.3     1  UNL1        0.1316
     32 C         139.7742  143.6781  159.9706 C.3     1  UNL1        0.1024
     33 C         139.9064  146.0596  161.0005 C.3     1  UNL1        0.0369
     34 C         140.1929  145.6604  162.4178 C.3     1  UNL1        0.0442
     35 C         139.1038  145.0747  163.2667 C.2     1  UNL1        0.0504
     36 O         137.8013  144.6706  162.6421 O.co2   1  UNL1       -0.5492
     37 O         139.3172  144.8932  164.7403 O.co2   1  UNL1       -0.5492
@<TRIPOS>UNITY_ATOM_ATTR
36 1
charge -1
@<TRIPOS>BOND
     1    24    25    1
     2    25    23    1
     3    23    21    1
     4    21    22    2
     5    21     1    1
     6     1     2    2
     7     2    26    1
     8    26    27    1
     9    27    28    1
    10    28    29    1
    11    29    30    1
    12    30    31    1
    13    31    33    1
    14    33    34    1
    15    34    35    1
    16    35    36   ar
    17    35    37   ar
    18    31    32    1
    19     2     3    1
    20     3     4    1
    21     4    16    1
    22    16    17   ar
    23    17    18   ar
    24    18    19   ar
    25    19    20   ar
    26     4     5    2
    27     5     6    1
    28     6     8    1
    29     8     9   ar
    30     9    10   ar
    31    10    11   ar
    32    11    12    1
    33    11    13   ar
    34    13    14   ar
    35    14    15    1
    36     6     1    1
    37    14     8   ar
    38    32    27    1
    39    20    16   ar
    40     3     7    1
@<TRIPOS>MOLECULE
*****
 37 40 0 0 0
SMALL
GASTEIGER

@<TRIPOS>ATOM
      1 C         141.3218  140.0747  160.6236 C.2     1  UNL1        0.1397
      2 C         140.9605  140.2367  159.1768 C.2     1  UNL1        0.1355
      3 N         141.4678  139.2549  158.1626 N.pl3   1  UNL1       -0.1998
      4 C         142.3363  138.1111  158.5951 C.2     1  UNL1        0.3442
      5 N         142.6976  137.9490  160.0418 N.2     1  UNL1       -0.0580
      6 C         142.1903  138.9308  161.0561 C.3     1  UNL1        0.2692
      7 H         141.2307  139.3613  157.2130 H       1  UNL1        0.2983
      8 C         142.5516  138.7687  162.5029 C.ar    1  UNL1        0.0371
      9 C         143.8495  139.3168  163.0178 C.ar    1  UNL1        0.0030
     10 C         144.2108  139.1547  164.4645 C.ar    1  UNL1        0.0295
     11 C         143.2743  138.4445  165.3965 C.ar    1  UNL1        0.1406
     12 F         143.6356  138.2824  166.8432 F       1  UNL1       -0.2042
     13 C         141.9764  137.8964  164.8816 C.ar    1  UNL1        0.0362
     14 C         141.6151  138.0585  163.4348 C.ar    1  UNL1        0.0372
     15 BR        140.3172  137.5104  162.9200 Br      1  UNL1       -0.0491
     16 C         142.8436  137.1292  157.5808 C.ar    1  UNL1        0.1931
     17 N         143.0166  135.6542  157.7912 N.ar    1  UNL1       -0.2297
     18 C         143.5469  135.0634  156.5185 C.ar    1  UNL1        0.1067
     19 C         143.7016  136.1733  155.5215 C.ar    1  UNL1        0.0577
     20 S         143.2670  137.4501  156.1780 S.2     1  UNL1       -0.0586
     21 C         140.8145  141.0565  161.6378 C.2     1  UNL1        0.3447
     22 O         139.3909  140.9843  162.1049 O.2     1  UNL1       -0.2450
     23 O         141.7308  142.1105  162.1851 O.3     1  UNL1       -0.4455
     24 C         142.6940  143.4233  164.2096 C.3     1  UNL1        0.0513
     25 C         141.7485  142.3982  163.6571 C.3     1  UNL1        0.2089
     26 C         140.0919  141.3807  158.7442 C.3     1  UNL1        0.1405
     27 N         140.6056  142.7872  158.8315 N.3     1  UNL1       -0.2618
     28 C         141.6896  143.2487  157.9030 C.3     1  UNL1        0.1050
     29 C         142.2033  144.6554  157.9903 C.3     1  UNL1        0.1594
     30 O         141.6331  145.6004  159.0060 O.3     1  UNL1       -0.3533
     31 C         140.5491  145.1389  159.9345 C.3     1  UNL1        0.1316
     32 C         140.0354  143.7324  159.8472 C.3     1  UNL1        0.1024
     33 C         139.9789  146.0839  160.9501 C.3     1  UNL1        0.0369
     34 C         140.1813  145.8238  162.4135 C.3     1  UNL1        0.0442
     35 C         139.1220  145.1130  163.2025 C.2     1  UNL1        0.0504
     36 O         137.8647  144.6531  162.5259 O.co2   1  UNL1       -0.5492
     37 O         139.3199  144.8620  164.6680 O.co2   1  UNL1       -0.5492
@<TRIPOS>UNITY_ATOM_ATTR
36 1
charge -1
@<TRIPOS>BOND
     1    24    25    1
     2    25    23    1
     3    23    21    1
     4    21    22    2
     5    21     1    1
     6     1     2    2
     7     2    26    1
     8    26    27    1
     9    27    28    1
    10    28    29    1
    11    29    30    1
    12    30    31    1
    13    31    33    1
    14    33    34    1
    15    34    35    1
    16    35    36   ar
    17    35    37   ar
    18    31    32    1
    19     2     3    1
    20     3     4    1
    21     4    16    1
    22    16    17   ar
    23    17    18   ar
    24    18    19   ar
    25    19    20   ar
    26     4     5    2
    27     5     6    1
    28     6     8    1
    29     8     9   ar
    30     9    10   ar
    31    10    11   ar
    32    11    12    1
    33    11    13   ar
    34    13    14   ar
    35    14    15    1
    36     6     1    1
    37    14     8   ar
    38    32    27    1
    39    20    16   ar
    40     3     7    1
@<TRIPOS>MOLECULE
*****
 37 40 0 0 0
SMALL
GASTEIGER

@<TRIPOS>ATOM
      1 C         141.6167  139.7080  161.9646 C.2     1  UNL1        0.1397
      2 C         141.6261  140.6013  163.1696 C.2     1  UNL1        0.1355
      3 N         141.2174  142.0387  163.0408 N.pl3   1  UNL1       -0.1998
      4 C         140.7992  142.5830  161.7071 C.2     1  UNL1        0.3442
      5 N         140.7898  141.6897  160.5021 N.2     1  UNL1       -0.0580
      6 C         141.1985  140.2522  160.6309 C.3     1  UNL1        0.2692
      7 H         141.2236  142.6250  163.8317 H       1  UNL1        0.2983
      8 C         141.1891  139.3590  159.4258 C.ar    1  UNL1        0.0371
      9 C         139.9340  138.6340  159.0395 C.ar    1  UNL1        0.0030
     10 C         139.9245  137.7407  157.8346 C.ar    1  UNL1        0.0295
     11 C         141.1701  137.5725  157.0158 C.ar    1  UNL1        0.1406
     12 F         141.1606  136.6793  155.8108 F       1  UNL1       -0.2042
     13 C         142.4252  138.2975  157.4021 C.ar    1  UNL1        0.0362
     14 C         142.4346  139.1908  158.6072 C.ar    1  UNL1        0.0372
     15 BR        143.6896  139.9158  158.9935 Br      1  UNL1       -0.0491
     16 C         140.3905  144.0205  161.5783 C.ar    1  UNL1        0.1931
     17 N         140.4711  144.8518  160.3324 N.ar    1  UNL1       -0.2297
     18 C         139.9598  146.2241  160.6569 C.ar    1  UNL1        0.1067
     19 C         139.5632  146.2410  162.1034 C.ar    1  UNL1        0.0577
     20 S         139.8294  144.8790  162.6728 S.2     1  UNL1       -0.0586
     21 C         142.0254  138.2705  162.0934 C.2     1  UNL1        0.3447
     22 O         143.4776  137.8973  162.0534 O.2     1  UNL1       -0.2450
     23 O         140.9819  137.2063  162.2622 O.3     1  UNL1       -0.4455
     24 C         138.4883  137.9311  162.3451 C.3     1  UNL1        0.0513
     25 C         139.7381  137.4937  163.0499 C.3     1  UNL1        0.2089
     26 C         142.0443  140.0570  164.5034 C.3     1  UNL1        0.1405
     27 N         141.2002  140.3141  165.7164 N.3     1  UNL1       -0.2618
     28 C         140.0910  139.3691  166.0723 C.3     1  UNL1        0.1050
     29 C         139.2469  139.6263  167.2854 C.3     1  UNL1        0.1594
     30 O         139.5120  140.8284  168.1425 O.3     1  UNL1       -0.3533
     31 C         140.6212  141.7734  167.7865 C.3     1  UNL1        0.1316
     32 C         141.4653  141.5163  166.5736 C.3     1  UNL1        0.1024
     33 C         140.8863  142.9755  168.6436 C.3     1  UNL1        0.0369
     34 C         141.8003  142.8654  169.8280 C.3     1  UNL1        0.0442
     35 C         141.5093  141.8678  170.9097 C.2     1  UNL1        0.0504
     36 O         142.2042  140.5385  170.9107 O.co2   1  UNL1       -0.5492
     37 O         140.5234  142.1996  171.9904 O.co2   1  UNL1       -0.5492
@<TRIPOS>UNITY_ATOM_ATTR
36 1
charge -1
@<TRIPOS>BOND
     1    24    25    1
     2    25    23    1
     3    23    21    1
     4    21    22    2
     5    21     1    1
     6     1     2    2
     7     2    26    1
     8    26    27    1
     9    27    28    1
    10    28    29    1
    11    29    30    1
    12    30    31    1
    13    31    33    1
    14    33    34    1
    15    34    35    1
    16    35    36   ar
    17    35    37   ar
    18    31    32    1
    19     2     3    1
    20     3     4    1
    21     4    16    1
    22    16    17   ar
    23    17    18   ar
    24    18    19   ar
    25    19    20   ar
    26     4     5    2
    27     5     6    1
    28     6     8    1
    29     8     9   ar
    30     9    10   ar
    31    10    11   ar
    32    11    12    1
    33    11    13   ar
    34    13    14   ar
    35    14    15    1
    36     6     1    1
    37    14     8   ar
    38    32    27    1
    39    20    16   ar
    40     3     7    1
@<TRIPOS>MOLECULE
*****
 37 40 0 0 0
SMALL
GASTEIGER

@<TRIPOS>ATOM
      1 C         140.9068  139.5459  159.4576 C.2     1  UNL1        0.1397
      2 C         139.5068  139.0751  159.7188 C.2     1  UNL1        0.1355
      3 N         138.3733  139.5933  158.8842 N.pl3   1  UNL1       -0.1998
      4 C         138.6397  140.5823  157.7884 C.2     1  UNL1        0.3442
      5 N         140.0398  141.0531  157.5272 N.2     1  UNL1       -0.0580
      6 C         141.1733  140.5349  158.3618 C.3     1  UNL1        0.2692
      7 H         137.4544  139.2843  159.0556 H       1  UNL1        0.2983
      8 C         142.5734  141.0058  158.1005 C.ar    1  UNL1        0.0371
      9 C         143.4554  140.2471  157.1537 C.ar    1  UNL1        0.0030
     10 C         144.8554  140.7179  156.8924 C.ar    1  UNL1        0.0295
     11 C         145.3734  141.9474  157.5780 C.ar    1  UNL1        0.1406
     12 F         146.7734  142.4182  157.3168 F       1  UNL1       -0.2042
     13 C         144.4914  142.7061  158.5249 C.ar    1  UNL1        0.0362
     14 C         143.0914  142.2352  158.7861 C.ar    1  UNL1        0.0372
     15 BR        142.2094  142.9939  159.7330 Br      1  UNL1       -0.0491
     16 C         137.5062  141.1005  156.9538 C.ar    1  UNL1        0.1931
     17 N         136.2021  140.4019  156.7066 N.ar    1  UNL1       -0.2297
     18 C         135.3676  141.2779  155.8199 C.ar    1  UNL1        0.1067
     19 C         136.1560  142.5181  155.5191 C.ar    1  UNL1        0.0577
     20 S         137.4777  142.4084  156.2199 S.2     1  UNL1       -0.0586
     21 C         142.0404  139.0277  160.2922 C.2     1  UNL1        0.3447
     22 O         142.8514  137.8601  159.8136 O.2     1  UNL1       -0.2450
     23 O         142.3629  139.6770  161.6053 O.3     1  UNL1       -0.4455
     24 C         142.4279  139.3898  164.1866 C.3     1  UNL1        0.0513
     25 C         142.6438  138.8308  162.8115 C.3     1  UNL1        0.2089
     26 C         139.2403  138.0860  160.8146 C.3     1  UNL1        0.1405
     27 N         139.0639  138.5605  162.2266 N.3     1  UNL1       -0.2618
     28 C         139.0882  137.5753  163.3574 C.3     1  UNL1        0.1050
     29 C         138.9118  138.0498  164.7695 C.3     1  UNL1        0.1594
     30 O         138.7111  139.5095  165.0506 O.3     1  UNL1       -0.3533
     31 C         138.6869  140.4947  163.9198 C.3     1  UNL1        0.1316
     32 C         138.8632  140.0202  162.5078 C.3     1  UNL1        0.1024
     33 C         138.4862  141.9543  164.2009 C.3     1  UNL1        0.0369
     34 C         137.5064  142.7471  163.3874 C.3     1  UNL1        0.0442
     35 C         137.9896  143.5936  162.2474 C.2     1  UNL1        0.0504
     36 O         138.0637  143.0177  160.8643 O.co2   1  UNL1       -0.5492
     37 O         138.3987  145.0161  162.4904 O.co2   1  UNL1       -0.5492
@<TRIPOS>UNITY_ATOM_ATTR
36 1
charge -1
@<TRIPOS>BOND
     1    24    25    1
     2    25    23    1
     3    23    21    1
     4    21    22    2
     5    21     1    1
     6     1     2    2
     7     2    26    1
     8    26    27    1
     9    27    28    1
    10    28    29    1
    11    29    30    1
    12    30    31    1
    13    31    33    1
    14    33    34    1
    15    34    35    1
    16    35    36   ar
    17    35    37   ar
    18    31    32    1
    19     2     3    1
    20     3     4    1
    21     4    16    1
    22    16    17   ar
    23    17    18   ar
    24    18    19   ar
    25    19    20   ar
    26     4     5    2
    27     5     6    1
    28     6     8    1
    29     8     9   ar
    30     9    10   ar
    31    10    11   ar
    32    11    12    1
    33    11    13   ar
    34    13    14   ar
    35    14    15    1
    36     6     1    1
    37    14     8   ar
    38    32    27    1
    39    20    16   ar
    40     3     7    1
