@<TRIPOS>MOLECULE
*****
 40 44 0 0 0
SMALL
GASTEIGER

@<TRIPOS>ATOM
      1 C         138.8879  142.9923  159.9774 C.ar    1  UNL1        0.2314
      2 N         140.1590  143.4618  160.6209 N.ar    1  UNL1       -0.1788
      3 C         141.3625  143.7577  159.7760 C.ar    1  UNL1        0.2191
      4 N         141.2951  143.5842  158.2876 N.ar    1  UNL1       -0.2157
      5 C         140.0241  143.1147  157.6441 C.ar    1  UNL1        0.0945
      6 C         138.8205  142.8188  158.4890 C.ar    1  UNL1        0.0770
      7 C         137.7136  142.3743  157.5795 C.3     1  UNL1        0.1750
      8 O         138.2332  142.3955  156.1725 O.3     1  UNL1       -0.3424
      9 C         139.6611  142.8531  156.2124 C.3     1  UNL1        0.1879
     10 N         142.6336  144.2272  160.4195 N.pl3   1  UNL1       -0.3045
     11 H         143.2476  144.8165  159.9244 H       1  UNL1        0.1496
     12 C         142.9693  143.7988  161.8173 C.3     1  UNL1        0.0745
     13 C         143.1196  144.8252  162.9007 C.3     1  UNL1        0.0369
     14 C         143.4552  144.3968  164.2985 C.3     1  UNL1        0.0741
     15 N         143.6405  142.9418  164.6128 N.3     1  UNL1       -0.2689
     16 C         143.4902  141.9154  163.5295 C.3     1  UNL1        0.0741
     17 C         143.1546  142.3438  162.1316 C.3     1  UNL1        0.0369
     18 C         143.9762  142.5134  166.0106 C.3     1  UNL1        0.0991
     19 C         142.8924  142.4025  167.0417 C.ar    1  UNL1       -0.0061
     20 C         141.4551  142.3476  166.6162 C.ar    1  UNL1       -0.0028
     21 C         140.3714  142.2368  167.6474 C.ar    1  UNL1        0.0042
     22 C         140.7249  142.1808  169.1040 C.ar    1  UNL1        0.0531
     23 C         142.1622  142.2357  169.5296 C.ar    1  UNL1        0.0042
     24 C         143.2460  142.3466  168.4984 C.ar    1  UNL1       -0.0028
     25 C         139.6412  142.0700  170.1352 C.2     1  UNL1        0.2427
     26 N         138.8239  140.8160  170.2323 N.am    1  UNL1       -0.3253
     27 O         139.3747  143.2132  171.0690 O.2     1  UNL1       -0.2704
     28 H         138.9989  140.0657  169.6194 H       1  UNL1        0.1453
     29 H         138.1126  140.7432  170.9090 H       1  UNL1        0.1453
     30 O         137.6844  142.6964  160.8223 O.3     1  UNL1       -0.4369
     31 C         137.7903  139.6985  160.8587 C.3     1  UNL1        0.0342
     32 C         137.8954  140.4683  162.1418 C.ar    1  UNL1        0.0131
     33 C         138.0535  139.7392  163.4431 C.ar    1  UNL1        0.0090
     34 C         138.1586  140.5091  164.7262 C.ar    1  UNL1        0.0680
     35 C         138.1056  142.0081  164.7080 C.ar    1  UNL1        0.0090
     36 C         137.9476  142.7371  163.4067 C.ar    1  UNL1        0.0131
     37 C         137.8946  144.2361  163.3884 C.3     1  UNL1        0.0342
     38 C         137.8425  141.9673  162.1236 C.ar    1  UNL1        0.1392
     39 C         138.3167  139.7799  166.0275 C.1     1  UNL1        0.1004
     40 N         138.4749  139.0508  167.3288 N.1     1  UNL1       -0.1908
@<TRIPOS>BOND
     1    31    32    1
     2    32    33   ar
     3    33    34   ar
     4    34    39    1
     5    39    40    3
     6    34    35   ar
     7    35    36   ar
     8    36    37    1
     9    36    38   ar
    10    38    30    1
    11    30     1    1
    12     1     2   ar
    13     2     3   ar
    14     3    10    1
    15    10    12    1
    16    12    13    1
    17    13    14    1
    18    14    15    1
    19    15    18    1
    20    18    19    1
    21    19    20   ar
    22    20    21   ar
    23    21    22   ar
    24    22    25    1
    25    25    26   am
    26    25    27    2
    27    22    23   ar
    28    23    24   ar
    29    15    16    1
    30    16    17    1
    31     3     4   ar
    32     4     5   ar
    33     5     6   ar
    34     6     7    1
    35     7     8    1
    36     8     9    1
    37    38    32   ar
    38     6     1   ar
    39    17    12    1
    40     9     5    1
    41    24    19   ar
    42    10    11    1
    43    26    28    1
    44    26    29    1
@<TRIPOS>MOLECULE
*****
 40 44 0 0 0
SMALL
GASTEIGER

@<TRIPOS>ATOM
      1 C         143.3750  142.3505  159.9684 C.ar    1  UNL1        0.2314
      2 N         143.2085  141.2539  160.9782 N.ar    1  UNL1       -0.1788
      3 C         143.5667  139.8424  160.6186 C.ar    1  UNL1        0.2191
      4 N         144.0914  139.5275  159.2491 N.ar    1  UNL1       -0.2157
      5 C         144.2579  140.6241  158.2393 C.ar    1  UNL1        0.0945
      6 C         143.8997  142.0356  158.5989 C.ar    1  UNL1        0.0770
      7 C         144.1685  142.9010  157.4036 C.3     1  UNL1        0.1750
      8 O         144.6928  142.0243  156.3052 O.3     1  UNL1       -0.3424
      9 C         144.7481  140.6171  156.8216 C.3     1  UNL1        0.1879
     10 N         143.4002  138.7458  161.6284 N.pl3   1  UNL1       -0.3045
     11 H         143.9657  137.9414  161.5793 H       1  UNL1        0.1496
     12 C         142.3721  138.8748  162.7130 C.3     1  UNL1        0.0745
     13 C         140.9374  139.1333  162.3596 C.3     1  UNL1        0.0369
     14 C         139.9093  139.2623  163.4442 C.3     1  UNL1        0.0741
     15 N         140.3159  139.1328  164.8823 N.3     1  UNL1       -0.2689
     16 C         141.7505  138.8743  165.2357 C.3     1  UNL1        0.0741
     17 C         142.7786  138.7453  164.1510 C.3     1  UNL1        0.0369
     18 C         139.2878  139.2618  165.9668 C.3     1  UNL1        0.0991
     19 C         139.5186  140.2041  167.1109 C.ar    1  UNL1       -0.0061
     20 C         140.0557  141.5805  166.8521 C.ar    1  UNL1       -0.0028
     21 C         140.2865  142.5228  167.9962 C.ar    1  UNL1        0.0042
     22 C         139.9803  142.0886  169.3990 C.ar    1  UNL1        0.0531
     23 C         139.4432  140.7122  169.6577 C.ar    1  UNL1        0.0042
     24 C         139.2124  139.7700  168.5136 C.ar    1  UNL1       -0.0028
     25 C         140.2111  143.0310  170.5430 C.2     1  UNL1        0.2427
     26 N         140.3483  144.5025  170.2865 N.am    1  UNL1       -0.3253
     27 O         140.3048  142.5017  171.9434 O.2     1  UNL1       -0.2704
     28 H         140.2868  144.8498  169.3674 H       1  UNL1        0.1453
     29 H         140.4998  145.1210  171.0374 H       1  UNL1        0.1453
     30 O         143.0167  143.7620  160.3281 O.3     1  UNL1       -0.4369
     31 C         144.1185  144.4398  163.0349 C.3     1  UNL1        0.0342
     32 C         142.6349  144.3698  162.8251 C.ar    1  UNL1        0.0131
     33 C         141.7022  144.6386  163.9686 C.ar    1  UNL1        0.0090
     34 C         140.2186  144.5686  163.7588 C.ar    1  UNL1        0.0680
     35 C         139.6677  144.2297  162.4054 C.ar    1  UNL1        0.0090
     36 C         140.6005  143.9609  161.2618 C.ar    1  UNL1        0.0131
     37 C         140.0496  143.6220  159.9084 C.3     1  UNL1        0.0342
     38 C         142.0841  144.0309  161.4717 C.ar    1  UNL1        0.1392
     39 C         139.2859  144.8375  164.9024 C.1     1  UNL1        0.1004
     40 N         138.3533  145.1063  166.0461 N.1     1  UNL1       -0.1908
@<TRIPOS>BOND
     1    31    32    1
     2    32    33   ar
     3    33    34   ar
     4    34    39    1
     5    39    40    3
     6    34    35   ar
     7    35    36   ar
     8    36    37    1
     9    36    38   ar
    10    38    30    1
    11    30     1    1
    12     1     2   ar
    13     2     3   ar
    14     3    10    1
    15    10    12    1
    16    12    13    1
    17    13    14    1
    18    14    15    1
    19    15    18    1
    20    18    19    1
    21    19    20   ar
    22    20    21   ar
    23    21    22   ar
    24    22    25    1
    25    25    26   am
    26    25    27    2
    27    22    23   ar
    28    23    24   ar
    29    15    16    1
    30    16    17    1
    31     3     4   ar
    32     4     5   ar
    33     5     6   ar
    34     6     7    1
    35     7     8    1
    36     8     9    1
    37    38    32   ar
    38     6     1   ar
    39    17    12    1
    40     9     5    1
    41    24    19   ar
    42    10    11    1
    43    26    28    1
    44    26    29    1
@<TRIPOS>MOLECULE
*****
 40 44 0 0 0
SMALL
GASTEIGER

@<TRIPOS>ATOM
      1 C         143.5150  142.1000  160.1209 C.ar    1  UNL1        0.2314
      2 N         143.0382  140.9399  160.9437 N.ar    1  UNL1       -0.1788
      3 C         143.0994  139.5491  160.3855 C.ar    1  UNL1        0.2191
      4 N         143.6374  139.3182  159.0045 N.ar    1  UNL1       -0.2157
      5 C         144.1143  140.4782  158.1817 C.ar    1  UNL1        0.0945
      6 C         144.0531  141.8691  158.7399 C.ar    1  UNL1        0.0770
      7 C         144.5914  142.8091  157.7024 C.3     1  UNL1        0.1750
      8 O         144.9853  141.9991  156.5029 O.3     1  UNL1       -0.3424
      9 C         144.6904  140.5586  156.7991 C.3     1  UNL1        0.1879
     10 N         142.6226  138.3890  161.2083 N.pl3   1  UNL1       -0.3045
     11 H         142.8572  137.4697  160.9455 H       1  UNL1        0.1496
     12 C         141.7883  138.6297  162.4314 C.3     1  UNL1        0.0745
     13 C         142.3822  138.4343  163.7949 C.3     1  UNL1        0.0369
     14 C         141.5479  138.6750  165.0180 C.3     1  UNL1        0.0741
     15 N         140.1196  139.1111  164.8776 N.3     1  UNL1       -0.2689
     16 C         139.5256  139.3065  163.5142 C.3     1  UNL1        0.0741
     17 C         140.3600  139.0658  162.2911 C.3     1  UNL1        0.0369
     18 C         139.2853  139.3518  166.1007 C.3     1  UNL1        0.0991
     19 C         139.6793  140.4181  167.0795 C.ar    1  UNL1       -0.0061
     20 C         139.5713  140.1603  168.5532 C.ar    1  UNL1       -0.0028
     21 C         139.9654  141.2266  169.5319 C.ar    1  UNL1        0.0042
     22 C         140.4675  142.5506  169.0369 C.ar    1  UNL1        0.0531
     23 C         140.5755  142.8083  167.5632 C.ar    1  UNL1        0.0042
     24 C         140.1814  141.7420  166.5845 C.ar    1  UNL1       -0.0028
     25 C         140.8615  143.6168  170.0156 C.2     1  UNL1        0.2427
     26 N         142.1874  143.5417  170.7129 N.am    1  UNL1       -0.3253
     27 O         139.9296  144.7580  170.2970 O.2     1  UNL1       -0.2704
     28 H         142.7990  142.7926  170.5282 H       1  UNL1        0.1453
     29 H         142.4461  144.2414  171.3553 H       1  UNL1        0.1453
     30 O         143.4538  143.4909  160.6792 O.3     1  UNL1       -0.4369
     31 C         140.7002  144.3069  159.8120 C.3     1  UNL1        0.0342
     32 C         141.0408  144.2503  161.2718 C.ar    1  UNL1        0.0131
     33 C         140.0047  144.6016  162.2979 C.ar    1  UNL1        0.0090
     34 C         140.3454  144.5450  163.7576 C.ar    1  UNL1        0.0680
     35 C         141.7222  144.1370  164.1912 C.ar    1  UNL1        0.0090
     36 C         142.7583  143.7856  163.1650 C.ar    1  UNL1        0.0131
     37 C         144.1351  143.3776  163.5986 C.3     1  UNL1        0.0342
     38 C         142.4176  143.8423  161.7053 C.ar    1  UNL1        0.1392
     39 C         139.3092  144.8963  164.7837 C.1     1  UNL1        0.1004
     40 N         138.2730  145.2478  165.8098 N.1     1  UNL1       -0.1908
@<TRIPOS>BOND
     1    31    32    1
     2    32    33   ar
     3    33    34   ar
     4    34    39    1
     5    39    40    3
     6    34    35   ar
     7    35    36   ar
     8    36    37    1
     9    36    38   ar
    10    38    30    1
    11    30     1    1
    12     1     2   ar
    13     2     3   ar
    14     3    10    1
    15    10    12    1
    16    12    13    1
    17    13    14    1
    18    14    15    1
    19    15    18    1
    20    18    19    1
    21    19    20   ar
    22    20    21   ar
    23    21    22   ar
    24    22    25    1
    25    25    26   am
    26    25    27    2
    27    22    23   ar
    28    23    24   ar
    29    15    16    1
    30    16    17    1
    31     3     4   ar
    32     4     5   ar
    33     5     6   ar
    34     6     7    1
    35     7     8    1
    36     8     9    1
    37    38    32   ar
    38     6     1   ar
    39    17    12    1
    40     9     5    1
    41    24    19   ar
    42    10    11    1
    43    26    28    1
    44    26    29    1
@<TRIPOS>MOLECULE
*****
 40 44 0 0 0
SMALL
GASTEIGER

@<TRIPOS>ATOM
      1 C         139.0196  142.9554  159.7825 C.ar    1  UNL1        0.2314
      2 N         138.4457  141.9391  160.7248 N.ar    1  UNL1       -0.1788
      3 C         137.8517  140.6705  160.1886 C.ar    1  UNL1        0.2191
      4 N         137.8314  140.4180  158.7101 N.ar    1  UNL1       -0.2157
      5 C         138.4053  141.4343  157.7678 C.ar    1  UNL1        0.0945
      6 C         138.9994  142.7030  158.3040 C.ar    1  UNL1        0.0770
      7 C         139.4869  143.5146  157.1406 C.3     1  UNL1        0.1750
      8 O         139.1942  142.7474  155.8853 O.3     1  UNL1       -0.3424
      9 C         138.5257  141.4618  156.2729 C.3     1  UNL1        0.1879
     10 N         137.2778  139.6541  161.1308 N.pl3   1  UNL1       -0.3045
     11 H         136.5050  139.1094  160.8563 H       1  UNL1        0.1496
     12 C         137.8814  139.4677  162.4913 C.3     1  UNL1        0.0745
     13 C         137.6396  140.4866  163.5652 C.3     1  UNL1        0.0369
     14 C         138.2432  140.3002  164.9257 C.3     1  UNL1        0.0741
     15 N         139.0888  139.0947  165.2122 N.3     1  UNL1       -0.2689
     16 C         139.3307  138.0759  164.1383 C.3     1  UNL1        0.0741
     17 C         138.7270  138.2623  162.7778 C.3     1  UNL1        0.0369
     18 C         139.6925  138.9083  166.5726 C.3     1  UNL1        0.0991
     19 C         140.0283  140.1036  167.4144 C.ar    1  UNL1       -0.0061
     20 C         139.4395  140.2438  168.7868 C.ar    1  UNL1       -0.0028
     21 C         139.7753  141.4391  169.6285 C.ar    1  UNL1        0.0042
     22 C         140.6999  142.4943  169.0977 C.ar    1  UNL1        0.0531
     23 C         141.2887  142.3542  167.7253 C.ar    1  UNL1        0.0042
     24 C         140.9529  141.1588  166.8836 C.ar    1  UNL1       -0.0028
     25 C         141.0357  143.6896  169.9395 C.2     1  UNL1        0.2427
     26 N         139.9830  144.7151  170.2396 N.am    1  UNL1       -0.3253
     27 O         142.4242  143.8594  170.4810 O.2     1  UNL1       -0.2704
     28 H         139.0717  144.6036  169.8841 H       1  UNL1        0.1453
     29 H         140.2034  145.4996  170.7920 H       1  UNL1        0.1453
     30 O         139.6137  144.2241  160.3188 O.3     1  UNL1       -0.4369
     31 C         138.8053  144.6809  163.1716 C.3     1  UNL1        0.0342
     32 C         140.2390  144.3966  162.8346 C.ar    1  UNL1        0.0131
     33 C         141.2686  144.3407  163.9240 C.ar    1  UNL1        0.0090
     34 C         142.7024  144.0565  163.5870 C.ar    1  UNL1        0.0680
     35 C         143.1066  143.8281  162.1607 C.ar    1  UNL1        0.0090
     36 C         142.0770  143.8840  161.0713 C.ar    1  UNL1        0.0131
     37 C         142.4811  143.6556  159.6449 C.3     1  UNL1        0.0342
     38 C         140.6432  144.1683  161.4082 C.ar    1  UNL1        0.1392
     39 C         143.7320  144.0006  164.6765 C.1     1  UNL1        0.1004
     40 N         144.7615  143.9449  165.7660 N.1     1  UNL1       -0.1908
@<TRIPOS>BOND
     1    31    32    1
     2    32    33   ar
     3    33    34   ar
     4    34    39    1
     5    39    40    3
     6    34    35   ar
     7    35    36   ar
     8    36    37    1
     9    36    38   ar
    10    38    30    1
    11    30     1    1
    12     1     2   ar
    13     2     3   ar
    14     3    10    1
    15    10    12    1
    16    12    13    1
    17    13    14    1
    18    14    15    1
    19    15    18    1
    20    18    19    1
    21    19    20   ar
    22    20    21   ar
    23    21    22   ar
    24    22    25    1
    25    25    26   am
    26    25    27    2
    27    22    23   ar
    28    23    24   ar
    29    15    16    1
    30    16    17    1
    31     3     4   ar
    32     4     5   ar
    33     5     6   ar
    34     6     7    1
    35     7     8    1
    36     8     9    1
    37    38    32   ar
    38     6     1   ar
    39    17    12    1
    40     9     5    1
    41    24    19   ar
    42    10    11    1
    43    26    28    1
    44    26    29    1
@<TRIPOS>MOLECULE
*****
 40 44 0 0 0
SMALL
GASTEIGER

@<TRIPOS>ATOM
      1 C         138.7382  142.7490  159.4485 C.ar    1  UNL1        0.2314
      2 N         138.3674  141.7587  160.5125 N.ar    1  UNL1       -0.1788
      3 C         137.6902  140.4738  160.1380 C.ar    1  UNL1        0.2191
      4 N         137.3837  140.1791  158.6995 N.ar    1  UNL1       -0.2157
      5 C         137.7545  141.1693  157.6356 C.ar    1  UNL1        0.0945
      6 C         138.4317  142.4543  158.0101 C.ar    1  UNL1        0.0770
      7 C         138.6763  143.2332  156.7518 C.3     1  UNL1        0.1750
      8 O         138.1502  142.4297  155.5996 O.3     1  UNL1       -0.3424
      9 C         137.5805  141.1541  156.1458 C.3     1  UNL1        0.1879
     10 N         137.3194  139.4835  161.2019 N.pl3   1  UNL1       -0.3045
     11 H         136.5181  138.9218  161.0939 H       1  UNL1        0.1496
     12 C         138.1696  139.3491  162.4304 C.3     1  UNL1        0.0745
     13 C         138.0559  140.3573  163.5353 C.3     1  UNL1        0.0369
     14 C         138.9061  140.2229  164.7637 C.3     1  UNL1        0.0741
     15 N         139.8699  139.0802  164.8874 N.3     1  UNL1       -0.2689
     16 C         139.9836  138.0720  163.7827 C.3     1  UNL1        0.0741
     17 C         139.1334  138.2065  162.5541 C.3     1  UNL1        0.0369
     18 C         140.7201  138.9458  166.1158 C.3     1  UNL1        0.0991
     19 C         140.5852  139.9371  167.2334 C.ar    1  UNL1       -0.0061
     20 C         141.5238  141.1041  167.3182 C.ar    1  UNL1       -0.0028
     21 C         141.3888  142.0954  168.4359 C.ar    1  UNL1        0.0042
     22 C         140.3153  141.9198  169.4687 C.ar    1  UNL1        0.0531
     23 C         139.3767  140.7529  169.3839 C.ar    1  UNL1        0.0042
     24 C         139.5117  139.7615  168.2663 C.ar    1  UNL1       -0.0028
     25 C         140.1804  142.9112  170.5863 C.2     1  UNL1        0.2427
     26 N         140.0053  144.3688  170.2787 N.am    1  UNL1       -0.3253
     27 O         140.2207  142.4449  172.0114 O.2     1  UNL1       -0.2704
     28 H         139.9789  144.6748  169.3433 H       1  UNL1        0.1453
     29 H         139.9167  145.0195  171.0122 H       1  UNL1        0.1453
     30 O         139.4154  144.0340  159.8231 O.3     1  UNL1       -0.4369
     31 C         142.2908  143.4776  159.1727 C.3     1  UNL1        0.0342
     32 C         141.8847  143.7702  160.5868 C.ar    1  UNL1        0.0131
     33 C         142.9163  143.7846  161.6756 C.ar    1  UNL1        0.0090
     34 C         142.5102  144.0772  163.0897 C.ar    1  UNL1        0.0680
     35 C         141.0725  144.3554  163.4148 C.ar    1  UNL1        0.0090
     36 C         140.0409  144.3409  162.3260 C.ar    1  UNL1        0.0131
     37 C         138.6033  144.6191  162.6511 C.3     1  UNL1        0.0342
     38 C         140.4470  144.0484  160.9119 C.ar    1  UNL1        0.1392
     39 C         143.5418  144.0916  164.1785 C.1     1  UNL1        0.1004
     40 N         144.5736  144.1059  165.2672 N.1     1  UNL1       -0.1908
@<TRIPOS>BOND
     1    31    32    1
     2    32    33   ar
     3    33    34   ar
     4    34    39    1
     5    39    40    3
     6    34    35   ar
     7    35    36   ar
     8    36    37    1
     9    36    38   ar
    10    38    30    1
    11    30     1    1
    12     1     2   ar
    13     2     3   ar
    14     3    10    1
    15    10    12    1
    16    12    13    1
    17    13    14    1
    18    14    15    1
    19    15    18    1
    20    18    19    1
    21    19    20   ar
    22    20    21   ar
    23    21    22   ar
    24    22    25    1
    25    25    26   am
    26    25    27    2
    27    22    23   ar
    28    23    24   ar
    29    15    16    1
    30    16    17    1
    31     3     4   ar
    32     4     5   ar
    33     5     6   ar
    34     6     7    1
    35     7     8    1
    36     8     9    1
    37    38    32   ar
    38     6     1   ar
    39    17    12    1
    40     9     5    1
    41    24    19   ar
    42    10    11    1
    43    26    28    1
    44    26    29    1
@<TRIPOS>MOLECULE
*****
 40 44 0 0 0
SMALL
GASTEIGER

@<TRIPOS>ATOM
      1 C         140.8440  143.7407  160.8297 C.ar    1  UNL1        0.2314
      2 N         141.9337  142.8287  161.3104 N.ar    1  UNL1       -0.1788
      3 C         143.2036  142.6974  160.5231 C.ar    1  UNL1        0.2191
      4 N         143.3840  143.4780  159.2550 N.ar    1  UNL1       -0.2157
      5 C         142.2944  144.3899  158.7742 C.ar    1  UNL1        0.0945
      6 C         141.0244  144.5213  159.5616 C.ar    1  UNL1        0.0770
      7 C         140.1327  145.4913  158.8446 C.3     1  UNL1        0.1750
      8 O         140.8516  145.9594  157.6142 O.3     1  UNL1       -0.3424
      9 C         142.1876  145.2788  157.5707 C.3     1  UNL1        0.1879
     10 N         144.2932  141.7854  161.0038 N.pl3   1  UNL1       -0.3045
     11 H         145.1354  141.7157  160.4987 H       1  UNL1        0.1496
     12 C         144.0996  140.9796  162.2541 C.3     1  UNL1        0.0745
     13 C         143.4172  139.6454  162.1886 C.3     1  UNL1        0.0369
     14 C         143.2236  138.8397  163.4389 C.3     1  UNL1        0.0741
     15 N         143.7125  139.3682  164.7549 N.3     1  UNL1       -0.2689
     16 C         144.3949  140.7023  164.8205 C.3     1  UNL1        0.0741
     17 C         144.5885  141.5081  163.5701 C.3     1  UNL1        0.0369
     18 C         143.5189  138.5625  166.0052 C.3     1  UNL1        0.0991
     19 C         142.6624  139.0950  167.1155 C.ar    1  UNL1       -0.0061
     20 C         141.4427  139.9083  166.7978 C.ar    1  UNL1       -0.0028
     21 C         140.5862  140.4408  167.9082 C.ar    1  UNL1        0.0042
     22 C         140.9494  140.1601  169.3362 C.ar    1  UNL1        0.0531
     23 C         142.1691  139.3468  169.6539 C.ar    1  UNL1        0.0042
     24 C         143.0256  138.8143  168.5435 C.ar    1  UNL1       -0.0028
     25 C         140.0929  140.6926  170.4466 C.2     1  UNL1        0.2427
     26 N         138.5983  140.6526  170.3259 N.am    1  UNL1       -0.3253
     27 O         140.7310  141.2651  171.6775 O.2     1  UNL1       -0.2704
     28 H         138.1796  140.2768  169.5180 H       1  UNL1        0.1453
     29 H         138.0361  141.0021  171.0546 H       1  UNL1        0.1453
     30 O         139.5740  143.8719  161.6171 O.3     1  UNL1       -0.4369
     31 C         140.0673  144.2819  164.5477 C.3     1  UNL1        0.0342
     32 C         139.4335  143.0112  164.0644 C.ar    1  UNL1        0.0131
     33 C         139.0464  141.9455  165.0464 C.ar    1  UNL1        0.0090
     34 C         138.4126  140.6748  164.5630 C.ar    1  UNL1        0.0680
     35 C         138.1659  140.4698  163.0977 C.ar    1  UNL1        0.0090
     36 C         138.5531  141.5356  162.1158 C.ar    1  UNL1        0.0131
     37 C         138.3064  141.3306  160.6505 C.3     1  UNL1        0.0342
     38 C         139.1869  142.8063  162.5991 C.ar    1  UNL1        0.1392
     39 C         138.0254  139.6091  165.5451 C.1     1  UNL1        0.1004
     40 N         137.6382  138.5434  166.5271 N.1     1  UNL1       -0.1908
@<TRIPOS>BOND
     1    31    32    1
     2    32    33   ar
     3    33    34   ar
     4    34    39    1
     5    39    40    3
     6    34    35   ar
     7    35    36   ar
     8    36    37    1
     9    36    38   ar
    10    38    30    1
    11    30     1    1
    12     1     2   ar
    13     2     3   ar
    14     3    10    1
    15    10    12    1
    16    12    13    1
    17    13    14    1
    18    14    15    1
    19    15    18    1
    20    18    19    1
    21    19    20   ar
    22    20    21   ar
    23    21    22   ar
    24    22    25    1
    25    25    26   am
    26    25    27    2
    27    22    23   ar
    28    23    24   ar
    29    15    16    1
    30    16    17    1
    31     3     4   ar
    32     4     5   ar
    33     5     6   ar
    34     6     7    1
    35     7     8    1
    36     8     9    1
    37    38    32   ar
    38     6     1   ar
    39    17    12    1
    40     9     5    1
    41    24    19   ar
    42    10    11    1
    43    26    28    1
    44    26    29    1
@<TRIPOS>MOLECULE
*****
 40 44 0 0 0
SMALL
GASTEIGER

@<TRIPOS>ATOM
      1 C         141.8402  142.4363  160.0053 C.ar    1  UNL1        0.2314
      2 N         140.6050  142.2165  160.8275 N.ar    1  UNL1       -0.1788
      3 C         139.4149  143.1114  160.6472 C.ar    1  UNL1        0.2191
      4 N         139.4599  144.2263  159.6447 N.ar    1  UNL1       -0.2157
      5 C         140.6951  144.4462  158.8225 C.ar    1  UNL1        0.0945
      6 C         141.8852  143.5512  159.0028 C.ar    1  UNL1        0.0770
      7 C         142.9560  144.0075  158.0567 C.3     1  UNL1        0.1750
      8 O         142.4275  145.1845  157.2915 O.3     1  UNL1       -0.3424
      9 C         141.0302  145.4556  157.7648 C.3     1  UNL1        0.1879
     10 N         138.1796  142.8916  161.4693 N.pl3   1  UNL1       -0.3045
     11 H         137.3329  143.3222  161.2106 H       1  UNL1        0.1496
     12 C         138.2345  142.0156  162.6858 C.3     1  UNL1        0.0745
     13 C         138.4893  142.6203  164.0347 C.3     1  UNL1        0.0369
     14 C         138.5441  141.7444  165.2511 C.3     1  UNL1        0.0741
     15 N         138.3442  140.2636  165.1186 N.3     1  UNL1       -0.2689
     16 C         138.0894  139.6589  163.7698 C.3     1  UNL1        0.0741
     17 C         138.0345  140.5349  162.5533 C.3     1  UNL1        0.0369
     18 C         138.3991  139.3876  166.3350 C.3     1  UNL1        0.0991
     19 C         139.3233  139.7310  167.4654 C.ar    1  UNL1       -0.0061
     20 C         138.7743  139.9428  168.8452 C.ar    1  UNL1       -0.0028
     21 C         139.6986  140.2862  169.9756 C.ar    1  UNL1        0.0042
     22 C         141.1719  140.4178  169.7263 C.ar    1  UNL1        0.0531
     23 C         141.7209  140.2060  168.3465 C.ar    1  UNL1        0.0042
     24 C         140.7966  139.8626  167.2161 C.ar    1  UNL1       -0.0028
     25 C         142.0961  140.7612  170.8567 C.2     1  UNL1        0.2427
     26 N         143.2984  139.9064  171.1284 N.am    1  UNL1       -0.3253
     27 O         141.8181  141.9592  171.7154 O.2     1  UNL1       -0.2704
     28 H         143.4809  139.1201  170.5648 H       1  UNL1        0.1453
     29 H         143.9051  140.1318  171.8703 H       1  UNL1        0.1453
     30 O         143.0304  141.5413  160.1857 O.3     1  UNL1       -0.4369
     31 C         141.9449  138.7731  160.5848 C.3     1  UNL1        0.0342
     32 C         142.7021  139.4483  161.6896 C.ar    1  UNL1        0.0131
     33 C         142.9166  138.7395  162.9941 C.ar    1  UNL1        0.0090
     34 C         143.6738  139.4147  164.0989 C.ar    1  UNL1        0.0680
     35 C         144.2165  140.7988  163.8994 C.ar    1  UNL1        0.0090
     36 C         144.0020  141.5076  162.5950 C.ar    1  UNL1        0.0131
     37 C         144.5447  142.8917  162.3954 C.3     1  UNL1        0.0342
     38 C         143.2448  140.8324  161.4901 C.ar    1  UNL1        0.1392
     39 C         143.8882  138.7058  165.4034 C.1     1  UNL1        0.1004
     40 N         144.1026  137.9969  166.7078 N.1     1  UNL1       -0.1908
@<TRIPOS>BOND
     1    31    32    1
     2    32    33   ar
     3    33    34   ar
     4    34    39    1
     5    39    40    3
     6    34    35   ar
     7    35    36   ar
     8    36    37    1
     9    36    38   ar
    10    38    30    1
    11    30     1    1
    12     1     2   ar
    13     2     3   ar
    14     3    10    1
    15    10    12    1
    16    12    13    1
    17    13    14    1
    18    14    15    1
    19    15    18    1
    20    18    19    1
    21    19    20   ar
    22    20    21   ar
    23    21    22   ar
    24    22    25    1
    25    25    26   am
    26    25    27    2
    27    22    23   ar
    28    23    24   ar
    29    15    16    1
    30    16    17    1
    31     3     4   ar
    32     4     5   ar
    33     5     6   ar
    34     6     7    1
    35     7     8    1
    36     8     9    1
    37    38    32   ar
    38     6     1   ar
    39    17    12    1
    40     9     5    1
    41    24    19   ar
    42    10    11    1
    43    26    28    1
    44    26    29    1
@<TRIPOS>MOLECULE
*****
 40 44 0 0 0
SMALL
GASTEIGER

@<TRIPOS>ATOM
      1 C         141.8003  140.5937  167.6633 C.ar    1  UNL1        0.2314
      2 N         140.6479  140.1487  166.8124 N.ar    1  UNL1       -0.1788
      3 C         139.3357  139.7999  167.4498 C.ar    1  UNL1        0.2191
      4 N         139.1757  139.8961  168.9382 N.ar    1  UNL1       -0.2157
      5 C         140.3281  140.3411  169.7891 C.ar    1  UNL1        0.0945
      6 C         141.6404  140.6899  169.1517 C.ar    1  UNL1        0.0770
      7 C         142.5909  141.0948  170.2391 C.3     1  UNL1        0.1750
      8 O         141.8660  140.9963  171.5486 O.3     1  UNL1       -0.3424
      9 C         140.4675  140.5305  171.2705 C.3     1  UNL1        0.1879
     10 N         138.1832  139.3549  166.5989 N.pl3   1  UNL1       -0.3045
     11 H         137.4262  138.8757  167.0070 H       1  UNL1        0.1496
     12 C         138.1843  139.6401  165.1263 C.3     1  UNL1        0.0745
     13 C         137.7991  141.0005  164.6255 C.3     1  UNL1        0.0369
     14 C         137.8001  141.2857  163.1528 C.3     1  UNL1        0.0741
     15 N         138.1864  140.2104  162.1810 N.3     1  UNL1       -0.2689
     16 C         138.5716  138.8500  162.6817 C.3     1  UNL1        0.0741
     17 C         138.5705  138.5648  164.1544 C.3     1  UNL1        0.0369
     18 C         138.1875  140.4955  160.7083 C.3     1  UNL1        0.0991
     19 C         139.1901  141.4496  160.1299 C.ar    1  UNL1       -0.0061
     20 C         138.7270  142.6259  159.3225 C.ar    1  UNL1       -0.0028
     21 C         139.7297  143.5799  158.7441 C.ar    1  UNL1        0.0042
     22 C         141.1954  143.3576  158.9730 C.ar    1  UNL1        0.0531
     23 C         141.6584  142.1813  159.7803 C.ar    1  UNL1        0.0042
     24 C         140.6557  141.2273  160.3588 C.ar    1  UNL1       -0.0028
     25 C         142.1980  144.3117  158.3945 C.2     1  UNL1        0.2427
     26 N         143.3478  143.7910  157.5842 N.am    1  UNL1       -0.3253
     27 O         142.0506  145.7863  158.6264 O.2     1  UNL1       -0.2704
     28 H         143.4445  142.8231  157.4320 H       1  UNL1        0.1453
     29 H         144.0059  144.4171  157.2045 H       1  UNL1        0.1453
     30 O         143.1126  140.9424  167.0258 O.3     1  UNL1       -0.4369
     31 C         142.7532  143.0866  164.9585 C.3     1  UNL1        0.0342
     32 C         143.1682  141.7063  164.5432 C.ar    1  UNL1        0.0131
     33 C         143.4035  141.3980  163.0942 C.ar    1  UNL1        0.0090
     34 C         143.8184  140.0177  162.6788 C.ar    1  UNL1        0.0680
     35 C         143.9981  138.9456  163.7125 C.ar    1  UNL1        0.0090
     36 C         143.7628  139.2539  165.1615 C.ar    1  UNL1        0.0131
     37 C         143.9424  138.1819  166.1951 C.3     1  UNL1        0.0342
     38 C         143.3478  140.6343  165.5768 C.ar    1  UNL1        0.1392
     39 C         144.0537  139.7095  161.2298 C.1     1  UNL1        0.1004
     40 N         144.2890  139.4014  159.7807 N.1     1  UNL1       -0.1908
@<TRIPOS>BOND
     1    31    32    1
     2    32    33   ar
     3    33    34   ar
     4    34    39    1
     5    39    40    3
     6    34    35   ar
     7    35    36   ar
     8    36    37    1
     9    36    38   ar
    10    38    30    1
    11    30     1    1
    12     1     2   ar
    13     2     3   ar
    14     3    10    1
    15    10    12    1
    16    12    13    1
    17    13    14    1
    18    14    15    1
    19    15    18    1
    20    18    19    1
    21    19    20   ar
    22    20    21   ar
    23    21    22   ar
    24    22    25    1
    25    25    26   am
    26    25    27    2
    27    22    23   ar
    28    23    24   ar
    29    15    16    1
    30    16    17    1
    31     3     4   ar
    32     4     5   ar
    33     5     6   ar
    34     6     7    1
    35     7     8    1
    36     8     9    1
    37    38    32   ar
    38     6     1   ar
    39    17    12    1
    40     9     5    1
    41    24    19   ar
    42    10    11    1
    43    26    28    1
    44    26    29    1
@<TRIPOS>MOLECULE
*****
 40 44 0 0 0
SMALL
GASTEIGER

@<TRIPOS>ATOM
      1 C         140.1412  141.8633  167.1526 C.ar    1  UNL1        0.2314
      2 N         139.6925  140.9102  166.0847 N.ar    1  UNL1       -0.1788
      3 C         139.0853  139.5918  166.4629 C.ar    1  UNL1        0.2191
      4 N         138.9269  139.2264  167.9091 N.ar    1  UNL1       -0.2157
      5 C         139.3756  140.1794  168.9770 C.ar    1  UNL1        0.0945
      6 C         139.9828  141.4978  168.5988 C.ar    1  UNL1        0.0770
      7 C         140.3298  142.2279  169.8623 C.3     1  UNL1        0.1750
      8 O         139.9371  141.3607  171.0214 O.3     1  UNL1       -0.3424
      9 C         139.3473  140.0946  170.4743 C.3     1  UNL1        0.1879
     10 N         138.6366  138.6387  165.3950 N.pl3   1  UNL1       -0.3045
     11 H         137.7842  138.1560  165.4926 H       1  UNL1        0.1496
     12 C         139.4867  138.4213  164.1785 C.3     1  UNL1        0.0745
     13 C         138.9139  138.6541  162.8118 C.3     1  UNL1        0.0369
     14 C         139.7640  138.4367  161.5952 C.3     1  UNL1        0.0741
     15 N         141.1870  137.9864  161.7453 N.3     1  UNL1       -0.2689
     16 C         141.7598  137.7536  163.1119 C.3     1  UNL1        0.0741
     17 C         140.9096  137.9711  164.3285 C.3     1  UNL1        0.0369
     18 C         142.0371  137.7690  160.5288 C.3     1  UNL1        0.0991
     19 C         142.6735  138.9395  159.8395 C.ar    1  UNL1       -0.0061
     20 C         142.9659  138.8761  158.3697 C.ar    1  UNL1       -0.0028
     21 C         143.6023  140.0467  157.6805 C.ar    1  UNL1        0.0042
     22 C         143.9462  141.2805  158.4611 C.ar    1  UNL1        0.0531
     23 C         143.6539  141.3438  159.9310 C.ar    1  UNL1        0.0042
     24 C         143.0175  140.1733  160.6202 C.ar    1  UNL1       -0.0028
     25 C         144.5826  142.4510  157.7719 C.2     1  UNL1        0.2427
     26 N         143.7649  143.6662  157.4486 N.am    1  UNL1       -0.3253
     27 O         146.0366  142.4061  157.4060 O.2     1  UNL1       -0.2704
     28 H         142.8106  143.6956  157.6888 H       1  UNL1        0.1453
     29 H         144.1826  144.4344  156.9962 H       1  UNL1        0.1453
     30 O         140.7484  143.1817  166.7743 O.3     1  UNL1       -0.4369
     31 C         138.7101  144.7768  165.2572 C.3     1  UNL1        0.0342
     32 C         139.9605  144.3116  164.5714 C.ar    1  UNL1        0.0131
     33 C         140.1918  144.6440  163.1271 C.ar    1  UNL1        0.0090
     34 C         141.4421  144.1788  162.4414 C.ar    1  UNL1        0.0680
     35 C         142.4612  143.3813  163.1999 C.ar    1  UNL1        0.0090
     36 C         142.2299  143.0489  164.6443 C.ar    1  UNL1        0.0131
     37 C         143.2490  142.2514  165.4028 C.3     1  UNL1        0.0342
     38 C         140.9796  143.5141  165.3300 C.ar    1  UNL1        0.1392
     39 C         141.6733  144.5112  160.9970 C.1     1  UNL1        0.1004
     40 N         141.9044  144.8435  159.5527 N.1     1  UNL1       -0.1908
@<TRIPOS>BOND
     1    31    32    1
     2    32    33   ar
     3    33    34   ar
     4    34    39    1
     5    39    40    3
     6    34    35   ar
     7    35    36   ar
     8    36    37    1
     9    36    38   ar
    10    38    30    1
    11    30     1    1
    12     1     2   ar
    13     2     3   ar
    14     3    10    1
    15    10    12    1
    16    12    13    1
    17    13    14    1
    18    14    15    1
    19    15    18    1
    20    18    19    1
    21    19    20   ar
    22    20    21   ar
    23    21    22   ar
    24    22    25    1
    25    25    26   am
    26    25    27    2
    27    22    23   ar
    28    23    24   ar
    29    15    16    1
    30    16    17    1
    31     3     4   ar
    32     4     5   ar
    33     5     6   ar
    34     6     7    1
    35     7     8    1
    36     8     9    1
    37    38    32   ar
    38     6     1   ar
    39    17    12    1
    40     9     5    1
    41    24    19   ar
    42    10    11    1
    43    26    28    1
    44    26    29    1
