@<TRIPOS>MOLECULE
*****
 36 39 0 0 0
SMALL
GASTEIGER

@<TRIPOS>ATOM
      1 N         141.2570  138.2852  160.1266 N.am    1  UNL1       -0.3018
      2 C         142.4612  138.2626  159.2326 C.2     1  UNL1        0.2425
      3 O         143.8300  138.4613  159.8129 O.2     1  UNL1       -0.2733
      4 H         140.3586  138.1548  159.7457 H       1  UNL1        0.1495
      5 N         141.6545  138.8193  163.6862 N.3     1  UNL1       -0.2711
      6 C         141.2346  137.6633  162.8275 C.3     1  UNL1        0.0933
      7 C         141.4217  138.5064  161.6010 C.3     1  UNL1        0.1035
      8 C         141.8415  139.6624  162.4597 C.3     1  UNL1        0.0933
      9 C         142.1486  139.4831  168.1095 C.3     1  UNL1        0.0298
     10 C         143.2286  138.7941  167.3292 C.3     1  UNL1        0.0039
     11 C         143.0639  138.5728  165.8548 C.3     1  UNL1        0.0160
     12 C         141.8192  139.0405  165.1606 C.3     1  UNL1        0.0576
     13 C         140.7392  139.7295  165.9409 C.3     1  UNL1        0.0160
     14 C         140.9038  139.9508  167.4152 C.3     1  UNL1        0.0039
     15 C         142.3131  139.7044  169.5839 C.3     1  UNL1        0.1425
     16 O         143.4010  140.6045  170.0903 O.3     1  UNL1       -0.3490
     17 C         143.4487  142.0401  169.6580 C.3     1  UNL1        0.1683
     18 C         141.1234  143.1973  169.5957 C.2     1  UNL1       -0.0023
     19 C         142.4734  143.0275  170.2271 C.2     1  UNL1        0.0056
     20 C         142.2965  138.0413  157.7581 C.3     1  UNL1        0.1747
     21 N         143.3764  137.3519  156.9779 N.pl3   1  UNL1       -0.3093
     22 H         144.3218  137.5002  157.2091 H       1  UNL1        0.1487
     23 C         143.0158  136.4366  155.8456 C.ar    1  UNL1        0.1500
     24 N         142.3875  136.8462  154.5466 N.ar    1  UNL1       -0.1544
     25 N         142.2036  135.6137  153.7117 N.ar    1  UNL1       -0.2476
     26 C         141.6093  135.5617  152.3354 C.3     1  UNL1        0.1537
     27 C         142.7182  134.4424  154.4947 C.ar    1  UNL1        0.0807
     28 C         142.7946  132.9784  154.1771 C.ar    1  UNL1        0.0188
     29 C         143.3730  132.0230  155.1784 C.ar    1  UNL1        0.0054
     30 C         143.8750  132.5316  156.4972 C.ar    1  UNL1        0.0716
     31 C         143.7986  133.9955  156.8148 C.ar    1  UNL1        0.0082
     32 C         143.2202  134.9509  155.8135 C.ar    1  UNL1        0.0503
     33 C         144.4534  131.5761  157.4986 C.3     1  UNL1        0.4186
     34 F         145.0318  130.6207  158.4998 F       1  UNL1       -0.1659
     35 F         143.2265  130.7199  157.3904 F       1  UNL1       -0.1659
     36 F         145.6803  132.4322  157.6067 F       1  UNL1       -0.1659
@<TRIPOS>BOND
     1    18    19    2
     2    19    17    1
     3    17    16    1
     4    16    15    1
     5     9    15    1
     6     9    10    1
     7    10    11    1
     8    11    12    1
     9    12     5    1
    10     5     6    1
    11     6     7    1
    12     7     1    1
    13     1     2   am
    14     2     3    2
    15     2    20    1
    16    20    21    1
    17    21    23    1
    18    23    24   ar
    19    24    25   ar
    20    25    26    1
    21    25    27   ar
    22    27    28   ar
    23    28    29   ar
    24    29    30   ar
    25    30    33    1
    26    33    34    1
    27    33    35    1
    28    33    36    1
    29    30    31   ar
    30    31    32   ar
    31     7     8    1
    32    12    13    1
    33    13    14    1
    34    14     9    1
    35     8     5    1
    36    32    23   ar
    37    32    27   ar
    38     1     4    1
    39    21    22    1
@<TRIPOS>MOLECULE
*****
 36 39 0 0 0
SMALL
GASTEIGER

@<TRIPOS>ATOM
      1 N         141.3903  139.9672  160.8527 N.am    1  UNL1       -0.3018
      2 C         141.9820  138.7945  160.1284 C.2     1  UNL1        0.2425
      3 O         142.4651  137.6023  160.8999 O.2     1  UNL1       -0.2733
      4 H         141.0732  140.7496  160.3463 H       1  UNL1        0.1495
      5 N         141.1282  139.9200  164.4642 N.3     1  UNL1       -0.2711
      6 C         140.3914  139.2566  163.3386 C.3     1  UNL1        0.0933
      7 C         141.2818  139.9476  162.3486 C.3     1  UNL1        0.1035
      8 C         142.0185  140.6109  163.4743 C.3     1  UNL1        0.0933
      9 C         140.8025  139.8614  168.9521 C.3     1  UNL1        0.0298
     10 C         139.5877  140.1337  168.1154 C.3     1  UNL1        0.0039
     11 C         139.6962  140.1532  166.6195 C.3     1  UNL1        0.0160
     12 C         141.0196  139.9005  165.9602 C.3     1  UNL1        0.0576
     13 C         142.2345  139.6282  166.7968 C.3     1  UNL1        0.0160
     14 C         142.1260  139.6087  168.2927 C.3     1  UNL1        0.0039
     15 C         140.6941  139.8419  170.4480 C.3     1  UNL1        0.1425
     16 O         140.5243  141.1261  171.2044 O.3     1  UNL1       -0.3490
     17 C         141.6076  142.1631  171.1745 C.3     1  UNL1        0.1683
     18 C         140.3913  143.6375  169.4148 C.2     1  UNL1       -0.0023
     19 C         141.6610  143.1599  170.0549 C.2     1  UNL1        0.0056
     20 C         142.0905  138.8140  158.6324 C.3     1  UNL1        0.1747
     21 N         143.0091  137.8551  157.9345 N.pl3   1  UNL1       -0.3093
     22 H         143.9525  137.7897  158.2081 H       1  UNL1        0.1487
     23 C         142.4902  136.9961  156.8197 C.ar    1  UNL1        0.1500
     24 N         141.5242  137.4226  155.7544 N.ar    1  UNL1       -0.1544
     25 N         141.2832  136.2497  154.8509 N.ar    1  UNL1       -0.2476
     26 C         140.3831  136.2314  153.6510 C.3     1  UNL1        0.1537
     27 C         142.1001  135.0984  155.3578 C.ar    1  UNL1        0.0807
     28 C         142.2612  133.6896  154.8686 C.ar    1  UNL1        0.0188
     29 C         143.1682  132.7421  155.5962 C.ar    1  UNL1        0.0054
     30 C         143.9141  133.2034  156.8131 C.ar    1  UNL1        0.0716
     31 C         143.7531  134.6122  157.3023 C.ar    1  UNL1        0.0082
     32 C         142.8461  135.5597  156.5746 C.ar    1  UNL1        0.0503
     33 C         144.8212  132.2558  157.5407 C.3     1  UNL1        0.4186
     34 F         145.7282  131.3083  158.2684 F       1  UNL1       -0.1659
     35 F         144.6737  131.2604  156.4284 F       1  UNL1       -0.1659
     36 F         144.9686  133.2512  158.6531 F       1  UNL1       -0.1659
@<TRIPOS>BOND
     1    18    19    2
     2    19    17    1
     3    17    16    1
     4    16    15    1
     5     9    15    1
     6     9    10    1
     7    10    11    1
     8    11    12    1
     9    12     5    1
    10     5     6    1
    11     6     7    1
    12     7     1    1
    13     1     2   am
    14     2     3    2
    15     2    20    1
    16    20    21    1
    17    21    23    1
    18    23    24   ar
    19    24    25   ar
    20    25    26    1
    21    25    27   ar
    22    27    28   ar
    23    28    29   ar
    24    29    30   ar
    25    30    33    1
    26    33    34    1
    27    33    35    1
    28    33    36    1
    29    30    31   ar
    30    31    32   ar
    31     7     8    1
    32    12    13    1
    33    13    14    1
    34    14     9    1
    35     8     5    1
    36    32    23   ar
    37    32    27   ar
    38     1     4    1
    39    21    22    1
@<TRIPOS>MOLECULE
*****
 36 39 0 0 0
SMALL
GASTEIGER

@<TRIPOS>ATOM
      1 N         140.1853  140.0277  161.1882 N.am    1  UNL1       -0.3018
      2 C         138.8369  139.8713  160.5501 C.2     1  UNL1        0.2425
      3 O         137.6177  139.6967  161.4062 O.2     1  UNL1       -0.2733
      4 H         140.9855  140.1423  160.6263 H       1  UNL1        0.1495
      5 N         140.4971  139.9842  164.7958 N.3     1  UNL1       -0.2711
      6 C         140.5610  141.0462  163.7385 C.3     1  UNL1        0.0933
      7 C         140.3145  140.0097  162.6825 C.3     1  UNL1        0.1035
      8 C         140.2506  138.9477  163.7399 C.3     1  UNL1        0.0933
      9 C         140.8846  139.9300  169.2788 C.3     1  UNL1        0.0298
     10 C         139.5440  140.1545  168.6445 C.3     1  UNL1        0.0039
     11 C         139.4148  140.1726  167.1502 C.3     1  UNL1        0.0160
     12 C         140.6263  139.9661  166.2902 C.3     1  UNL1        0.0576
     13 C         141.9669  139.7416  166.9244 C.3     1  UNL1        0.0160
     14 C         142.0961  139.7235  168.4186 C.3     1  UNL1        0.0039
     15 C         141.0139  139.9119  170.7731 C.3     1  UNL1        0.1425
     16 O         141.1688  141.1988  171.5281 O.3     1  UNL1       -0.3490
     17 C         142.1888  142.2075  171.0898 C.3     1  UNL1        0.1683
     18 C         140.3880  143.6156  169.8551 C.2     1  UNL1       -0.0023
     19 C         141.8259  143.2471  170.0712 C.2     1  UNL1        0.0056
     20 C         138.7077  139.8893  159.0558 C.3     1  UNL1        0.1747
     21 N         138.3441  141.1619  158.3497 N.pl3   1  UNL1       -0.3093
     22 H         137.4843  141.2334  157.8756 H       1  UNL1        0.1487
     23 C         139.2905  142.3256  158.3661 C.ar    1  UNL1        0.1500
     24 N         140.1749  142.7587  157.2347 N.ar    1  UNL1       -0.1544
     25 N         140.9497  143.9612  157.6862 N.ar    1  UNL1       -0.2476
     26 C         141.9538  144.7204  156.8704 C.3     1  UNL1        0.1537
     27 C         140.5441  144.2711  159.0967 C.ar    1  UNL1        0.0807
     28 C         140.9761  145.3432  160.0527 C.ar    1  UNL1        0.0188
     29 C         140.3826  145.4045  161.4289 C.ar    1  UNL1        0.0054
     30 C         139.3572  144.3936  161.8491 C.ar    1  UNL1        0.0716
     31 C         138.9252  143.3215  160.8931 C.ar    1  UNL1        0.0082
     32 C         139.5187  143.2602  159.5169 C.ar    1  UNL1        0.0503
     33 C         138.7637  144.4548  163.2254 C.3     1  UNL1        0.4186
     34 F         138.1703  144.5161  164.6016 F       1  UNL1       -0.1659
     35 F         137.4050  144.1818  162.6517 F       1  UNL1       -0.1659
     36 F         140.1225  144.7278  163.7991 F       1  UNL1       -0.1659
@<TRIPOS>BOND
     1    18    19    2
     2    19    17    1
     3    17    16    1
     4    16    15    1
     5     9    15    1
     6     9    10    1
     7    10    11    1
     8    11    12    1
     9    12     5    1
    10     5     6    1
    11     6     7    1
    12     7     1    1
    13     1     2   am
    14     2     3    2
    15     2    20    1
    16    20    21    1
    17    21    23    1
    18    23    24   ar
    19    24    25   ar
    20    25    26    1
    21    25    27   ar
    22    27    28   ar
    23    28    29   ar
    24    29    30   ar
    25    30    33    1
    26    33    34    1
    27    33    35    1
    28    33    36    1
    29    30    31   ar
    30    31    32   ar
    31     7     8    1
    32    12    13    1
    33    13    14    1
    34    14     9    1
    35     8     5    1
    36    32    23   ar
    37    32    27   ar
    38     1     4    1
    39    21    22    1
@<TRIPOS>MOLECULE
*****
 36 39 0 0 0
SMALL
GASTEIGER

@<TRIPOS>ATOM
      1 N         142.1592  138.8861  161.4404 N.am    1  UNL1       -0.3018
      2 C         142.8899  139.9399  160.6623 C.2     1  UNL1        0.2425
      3 O         143.3442  141.1962  161.3444 O.2     1  UNL1       -0.2733
      4 H         141.8611  138.0615  160.9926 H       1  UNL1        0.1495
      5 N         141.4918  139.3749  164.9659 N.3     1  UNL1       -0.2711
      6 C         142.2064  138.3340  164.1561 C.3     1  UNL1        0.0933
      7 C         141.8827  139.0886  162.9007 C.3     1  UNL1        0.1035
      8 C         141.1682  140.1294  163.7106 C.3     1  UNL1        0.0933
      9 C         140.6624  139.9825  169.3469 C.3     1  UNL1        0.0298
     10 C         139.5362  140.0277  168.3571 C.3     1  UNL1        0.0039
     11 C         139.8127  139.8251  166.8968 C.3     1  UNL1        0.0160
     12 C         141.2153  139.5774  166.4263 C.3     1  UNL1        0.0576
     13 C         142.3414  139.5322  167.4161 C.3     1  UNL1        0.0160
     14 C         142.0650  139.7347  168.8764 C.3     1  UNL1        0.0039
     15 C         140.3860  140.1850  170.8072 C.3     1  UNL1        0.1425
     16 O         140.1561  141.5673  171.3424 O.3     1  UNL1       -0.3490
     17 C         139.9768  142.7176  170.3965 C.3     1  UNL1        0.1683
     18 C         142.5464  143.0972  170.3435 C.2     1  UNL1       -0.0023
     19 C         141.1767  143.4044  169.8148 C.2     1  UNL1        0.0056
     20 C         143.1664  139.7374  159.2019 C.3     1  UNL1        0.1747
     21 N         143.3274  138.3501  158.6544 N.pl3   1  UNL1       -0.3093
     22 H         144.0803  137.7887  158.9497 H       1  UNL1        0.1487
     23 C         142.3412  137.8183  157.6571 C.ar    1  UNL1        0.1500
     24 N         141.0992  138.5158  157.1872 N.ar    1  UNL1       -0.1544
     25 N         140.4144  137.6242  156.1942 N.ar    1  UNL1       -0.2476
     26 C         139.1353  137.9278  155.4719 C.3     1  UNL1        0.1537
     27 C         141.2332  136.3756  156.0504 C.ar    1  UNL1        0.0807
     28 C         141.0482  135.1450  155.2130 C.ar    1  UNL1        0.0188
     29 C         142.0541  134.0344  155.2796 C.ar    1  UNL1        0.0054
     30 C         143.2450  134.1543  156.1837 C.ar    1  UNL1        0.0716
     31 C         143.4300  135.3849  157.0211 C.ar    1  UNL1        0.0082
     32 C         142.4241  136.4956  156.9545 C.ar    1  UNL1        0.0503
     33 C         144.2510  133.0436  156.2503 C.3     1  UNL1        0.4186
     34 F         145.2569  131.9329  156.3169 F       1  UNL1       -0.1659
     35 F         144.6025  133.4459  157.6519 F       1  UNL1       -0.1659
     36 F         143.8995  132.6412  154.8488 F       1  UNL1       -0.1659
@<TRIPOS>BOND
     1    18    19    2
     2    19    17    1
     3    17    16    1
     4    16    15    1
     5     9    15    1
     6     9    10    1
     7    10    11    1
     8    11    12    1
     9    12     5    1
    10     5     6    1
    11     6     7    1
    12     7     1    1
    13     1     2   am
    14     2     3    2
    15     2    20    1
    16    20    21    1
    17    21    23    1
    18    23    24   ar
    19    24    25   ar
    20    25    26    1
    21    25    27   ar
    22    27    28   ar
    23    28    29   ar
    24    29    30   ar
    25    30    33    1
    26    33    34    1
    27    33    35    1
    28    33    36    1
    29    30    31   ar
    30    31    32   ar
    31     7     8    1
    32    12    13    1
    33    13    14    1
    34    14     9    1
    35     8     5    1
    36    32    23   ar
    37    32    27   ar
    38     1     4    1
    39    21    22    1
@<TRIPOS>MOLECULE
*****
 36 39 0 0 0
SMALL
GASTEIGER

@<TRIPOS>ATOM
      1 N         142.8469  136.9917  159.2751 N.am    1  UNL1       -0.3018
      2 C         142.7288  137.8482  158.0493 C.2     1  UNL1        0.2425
      3 O         142.6047  139.3370  158.1837 O.2     1  UNL1       -0.2733
      4 H         142.9283  136.0145  159.1869 H       1  UNL1        0.1495
      5 N         142.8325  138.5185  162.5588 N.3     1  UNL1       -0.2711
      6 C         141.7777  138.1236  161.5681 C.3     1  UNL1        0.0933
      7 C         142.8410  137.6241  160.6352 C.3     1  UNL1        0.1035
      8 C         143.8957  138.0190  161.6260 C.3     1  UNL1        0.0933
      9 C         142.8146  140.4158  166.6393 C.3     1  UNL1        0.0298
     10 C         142.9200  141.2740  165.4136 C.3     1  UNL1        0.0039
     11 C         142.9259  140.6416  164.0534 C.3     1  UNL1        0.0160
     12 C         142.8265  139.1509  163.9189 C.3     1  UNL1        0.0576
     13 C         142.7212  138.2927  165.1446 C.3     1  UNL1        0.0160
     14 C         142.7153  138.9251  166.5047 C.3     1  UNL1        0.0039
     15 C         142.8087  141.0480  167.9994 C.3     1  UNL1        0.1425
     16 O         141.9088  142.2149  168.2801 O.3     1  UNL1       -0.3490
     17 C         140.4196  142.0447  168.2219 C.3     1  UNL1        0.1683
     18 C         139.2945  139.7606  167.7052 C.2     1  UNL1       -0.0023
     19 C         139.7914  140.7687  168.6986 C.2     1  UNL1        0.0056
     20 C         142.7347  137.2157  156.6892 C.3     1  UNL1        0.1747
     21 N         142.0207  135.9160  156.4632 N.pl3   1  UNL1       -0.3093
     22 H         141.0798  135.9151  156.1736 H       1  UNL1        0.1487
     23 C         142.7403  134.6176  156.6786 C.ar    1  UNL1        0.1500
     24 N         143.9568  134.4149  157.5325 N.ar    1  UNL1       -0.1544
     25 N         144.3381  132.9660  157.4595 N.ar    1  UNL1       -0.2476
     26 C         145.4968  132.3228  158.1621 C.3     1  UNL1        0.1537
     27 C         143.3573  132.2733  156.5606 C.ar    1  UNL1        0.0807
     28 C         143.2357  130.8449  156.1192 C.ar    1  UNL1        0.0188
     29 C         142.1267  130.4373  155.1951 C.ar    1  UNL1        0.0054
     30 C         141.1393  131.4580  154.7125 C.ar    1  UNL1        0.0716
     31 C         141.2608  132.8864  155.1539 C.ar    1  UNL1        0.0082
     32 C         142.3698  133.2940  156.0780 C.ar    1  UNL1        0.0503
     33 C         140.0302  131.0503  153.7884 C.3     1  UNL1        0.4186
     34 F         138.9212  130.6426  152.8644 F       1  UNL1       -0.1659
     35 F         140.7394  131.7131  152.6448 F       1  UNL1       -0.1659
     36 F         139.3211  130.3876  154.9319 F       1  UNL1       -0.1659
@<TRIPOS>BOND
     1    18    19    2
     2    19    17    1
     3    17    16    1
     4    16    15    1
     5     9    15    1
     6     9    10    1
     7    10    11    1
     8    11    12    1
     9    12     5    1
    10     5     6    1
    11     6     7    1
    12     7     1    1
    13     1     2   am
    14     2     3    2
    15     2    20    1
    16    20    21    1
    17    21    23    1
    18    23    24   ar
    19    24    25   ar
    20    25    26    1
    21    25    27   ar
    22    27    28   ar
    23    28    29   ar
    24    29    30   ar
    25    30    33    1
    26    33    34    1
    27    33    35    1
    28    33    36    1
    29    30    31   ar
    30    31    32   ar
    31     7     8    1
    32    12    13    1
    33    13    14    1
    34    14     9    1
    35     8     5    1
    36    32    23   ar
    37    32    27   ar
    38     1     4    1
    39    21    22    1
@<TRIPOS>MOLECULE
*****
 36 39 0 0 0
SMALL
GASTEIGER

@<TRIPOS>ATOM
      1 N         142.2694  140.1201  160.5244 N.am    1  UNL1       -0.3018
      2 C         142.5963  138.8163  159.8585 C.2     1  UNL1        0.2425
      3 O         143.0398  137.6439  160.6823 O.2     1  UNL1       -0.2733
      4 H         141.9783  140.8896  159.9837 H       1  UNL1        0.1495
      5 N         142.5513  140.4369  164.1208 N.3     1  UNL1       -0.2711
      6 C         143.5059  140.1306  163.0050 C.3     1  UNL1        0.0933
      7 C         142.3862  140.2513  162.0141 C.3     1  UNL1        0.1035
      8 C         141.4317  140.5576  163.1299 C.3     1  UNL1        0.0933
      9 C         142.9015  140.8306  168.5899 C.3     1  UNL1        0.0298
     10 C         143.0146  142.0465  167.7187 C.3     1  UNL1        0.0039
     11 C         142.8979  141.9152  166.2290 C.3     1  UNL1        0.0160
     12 C         142.6680  140.5681  165.6105 C.3     1  UNL1        0.0576
     13 C         142.5550  139.3523  166.4817 C.3     1  UNL1        0.0160
     14 C         142.6717  139.4835  167.9713 C.3     1  UNL1        0.0039
     15 C         143.0182  140.9617  170.0795 C.3     1  UNL1        0.1425
     16 O         141.8098  140.7664  170.9466 O.3     1  UNL1       -0.3490
     17 C         140.7313  141.8086  170.9760 C.3     1  UNL1        0.1683
     18 C         139.3372  140.4228  169.2772 C.2     1  UNL1       -0.0023
     19 C         139.4681  141.6030  170.1938 C.2     1  UNL1        0.0056
     20 C         142.4795  138.6851  158.3689 C.3     1  UNL1        0.1747
     21 N         143.1758  137.5625  157.6580 N.pl3   1  UNL1       -0.3093
     22 H         144.1186  137.3624  157.8587 H       1  UNL1        0.1487
     23 C         142.4355  136.7450  156.6413 C.ar    1  UNL1        0.1500
     24 N         141.4655  137.2699  155.6246 N.ar    1  UNL1       -0.1544
     25 N         140.9658  136.1082  154.8179 N.ar    1  UNL1       -0.2476
     26 C         139.9783  136.1773  153.6909 C.3     1  UNL1        0.1537
     27 C         141.6269  134.8654  155.3360 C.ar    1  UNL1        0.0807
     28 C         141.5191  133.4263  154.9272 C.ar    1  UNL1        0.0188
     29 C         142.3196  132.3807  155.6453 C.ar    1  UNL1        0.0054
     30 C         143.2280  132.7742  156.7723 C.ar    1  UNL1        0.0716
     31 C         143.3358  134.2133  157.1811 C.ar    1  UNL1        0.0082
     32 C         142.5352  135.2589  156.4630 C.ar    1  UNL1        0.0503
     33 C         144.0285  131.7285  157.4904 C.3     1  UNL1        0.4186
     34 F         144.8290  130.6828  158.2085 F       1  UNL1       -0.1659
     35 F         145.1661  132.6960  157.6312 F       1  UNL1       -0.1659
     36 F         142.8910  130.7610  157.3496 F       1  UNL1       -0.1659
@<TRIPOS>BOND
     1    18    19    2
     2    19    17    1
     3    17    16    1
     4    16    15    1
     5     9    15    1
     6     9    10    1
     7    10    11    1
     8    11    12    1
     9    12     5    1
    10     5     6    1
    11     6     7    1
    12     7     1    1
    13     1     2   am
    14     2     3    2
    15     2    20    1
    16    20    21    1
    17    21    23    1
    18    23    24   ar
    19    24    25   ar
    20    25    26    1
    21    25    27   ar
    22    27    28   ar
    23    28    29   ar
    24    29    30   ar
    25    30    33    1
    26    33    34    1
    27    33    35    1
    28    33    36    1
    29    30    31   ar
    30    31    32   ar
    31     7     8    1
    32    12    13    1
    33    13    14    1
    34    14     9    1
    35     8     5    1
    36    32    23   ar
    37    32    27   ar
    38     1     4    1
    39    21    22    1
@<TRIPOS>MOLECULE
*****
 36 39 0 0 0
SMALL
GASTEIGER

@<TRIPOS>ATOM
      1 N         141.8720  139.6184  161.3473 N.am    1  UNL1       -0.3018
      2 C         143.2700  139.5786  160.8050 C.2     1  UNL1        0.2425
      3 O         144.4396  139.5994  161.7440 O.2     1  UNL1       -0.2733
      4 H         141.1044  139.6047  160.7310 H       1  UNL1        0.1495
      5 N         141.3208  139.7645  164.9234 N.3     1  UNL1       -0.2711
      6 C         141.6537  138.6772  163.9451 C.3     1  UNL1        0.0933
      7 C         141.6437  139.6789  162.8286 C.3     1  UNL1        0.1035
      8 C         141.3108  140.7661  163.8069 C.3     1  UNL1        0.0933
      9 C         140.6357  139.9462  169.3673 C.3     1  UNL1        0.0298
     10 C         139.4701  140.0110  168.4255 C.3     1  UNL1        0.0039
     11 C         139.6984  139.9505  166.9442 C.3     1  UNL1        0.0160
     12 C         141.0924  139.8250  166.4047 C.3     1  UNL1        0.0576
     13 C         142.2581  139.7602  167.3465 C.3     1  UNL1        0.0160
     14 C         142.0298  139.8208  168.8277 C.3     1  UNL1        0.0039
     15 C         140.4075  140.0067  170.8485 C.3     1  UNL1        0.1425
     16 O         140.4266  141.3289  171.5569 O.3     1  UNL1       -0.3490
     17 C         140.1040  142.5868  170.8062 C.3     1  UNL1        0.1683
     18 C         142.6082  143.1169  170.3613 C.2     1  UNL1       -0.0023
     19 C         141.1629  143.2645  169.9880 C.2     1  UNL1        0.0056
     20 C         143.4983  139.5181  159.3237 C.3     1  UNL1        0.1747
     21 N         143.6833  140.7843  158.5410 N.pl3   1  UNL1       -0.3093
     22 H         144.4665  140.8901  157.9539 H       1  UNL1        0.1487
     23 C         142.6750  141.8892  158.6528 C.ar    1  UNL1        0.1500
     24 N         141.6422  142.2476  157.6257 N.ar    1  UNL1       -0.1544
     25 N         140.8514  143.4096  158.1495 N.ar    1  UNL1       -0.2476
     26 C         139.7159  144.0920  157.4460 C.3     1  UNL1        0.1537
     27 C         141.3955  143.7694  159.5002 C.ar    1  UNL1        0.0807
     28 C         141.0102  144.8312  160.4871 C.ar    1  UNL1        0.0188
     29 C         141.7520  144.9534  161.7851 C.ar    1  UNL1        0.0054
     30 C         142.8791  144.0137  162.0962 C.ar    1  UNL1        0.0716
     31 C         143.2643  142.9519  161.1093 C.ar    1  UNL1        0.0082
     32 C         142.5225  142.8297  159.8113 C.ar    1  UNL1        0.0503
     33 C         143.6209  144.1359  163.3942 C.3     1  UNL1        0.4186
     34 F         144.3627  144.2581  164.6922 F       1  UNL1       -0.1659
     35 F         143.0665  145.5171  163.5811 F       1  UNL1       -0.1659
     36 F         144.1753  142.7548  163.2074 F       1  UNL1       -0.1659
@<TRIPOS>BOND
     1    18    19    2
     2    19    17    1
     3    17    16    1
     4    16    15    1
     5     9    15    1
     6     9    10    1
     7    10    11    1
     8    11    12    1
     9    12     5    1
    10     5     6    1
    11     6     7    1
    12     7     1    1
    13     1     2   am
    14     2     3    2
    15     2    20    1
    16    20    21    1
    17    21    23    1
    18    23    24   ar
    19    24    25   ar
    20    25    26    1
    21    25    27   ar
    22    27    28   ar
    23    28    29   ar
    24    29    30   ar
    25    30    33    1
    26    33    34    1
    27    33    35    1
    28    33    36    1
    29    30    31   ar
    30    31    32   ar
    31     7     8    1
    32    12    13    1
    33    13    14    1
    34    14     9    1
    35     8     5    1
    36    32    23   ar
    37    32    27   ar
    38     1     4    1
    39    21    22    1
@<TRIPOS>MOLECULE
*****
 36 39 0 0 0
SMALL
GASTEIGER

@<TRIPOS>ATOM
      1 N         143.7559  140.3345  160.6297 N.am    1  UNL1       -0.3018
      2 C         144.1310  139.7939  161.9776 C.2     1  UNL1        0.2425
      3 O         144.1678  138.3121  162.2078 O.2     1  UNL1       -0.2733
      4 H         143.7318  141.3070  160.4787 H       1  UNL1        0.1495
      5 N         142.9391  138.0620  157.9310 N.3     1  UNL1       -0.2711
      6 C         142.9398  137.9737  159.4284 C.3     1  UNL1        0.0933
      7 C         143.4176  139.3932  159.5118 C.3     1  UNL1        0.1035
      8 C         143.4168  139.4815  158.0145 C.3     1  UNL1        0.0933
      9 C         141.9241  135.2383  154.5774 C.3     1  UNL1        0.0298
     10 C         140.8317  135.9761  155.2932 C.3     1  UNL1        0.0039
     11 C         141.1700  136.9173  156.4110 C.3     1  UNL1        0.0160
     12 C         142.6007  137.1208  156.8131 C.3     1  UNL1        0.0576
     13 C         143.6931  136.3830  156.0973 C.3     1  UNL1        0.0160
     14 C         143.3548  135.4418  154.9795 C.3     1  UNL1        0.0039
     15 C         141.5859  134.2971  153.4596 C.3     1  UNL1        0.1425
     16 O         141.0509  132.9297  153.7664 O.3     1  UNL1       -0.3490
     17 C         141.1754  132.3691  155.1522 C.3     1  UNL1        0.1683
     18 C         143.0547  132.2728  156.9436 C.2     1  UNL1       -0.0023
     19 C         142.4913  131.8275  155.6267 C.2     1  UNL1        0.0056
     20 C         144.4693  140.7351  163.0955 C.3     1  UNL1        0.1747
     21 N         143.5890  140.8068  164.3080 N.pl3   1  UNL1       -0.3093
     22 H         143.8534  140.3449  165.1362 H       1  UNL1        0.1487
     23 C         142.3059  141.5822  164.2585 C.ar    1  UNL1        0.1500
     24 N         142.1634  143.0281  163.8853 N.ar    1  UNL1       -0.1544
     25 N         140.7095  143.3873  163.9696 N.ar    1  UNL1       -0.2476
     26 C         140.1158  144.7339  163.6795 C.3     1  UNL1        0.1537
     27 C         139.9535  142.1636  164.3949 C.ar    1  UNL1        0.0807
     28 C         138.4942  141.9210  164.6427 C.ar    1  UNL1        0.0188
     29 C         138.0215  140.5628  165.0690 C.ar    1  UNL1        0.0054
     30 C         139.0082  139.4471  165.2475 C.ar    1  UNL1        0.0716
     31 C         140.4675  139.6897  164.9998 C.ar    1  UNL1        0.0082
     32 C         140.9402  141.0479  164.5734 C.ar    1  UNL1        0.0503
     33 C         138.5354  138.0889  165.6739 C.3     1  UNL1        0.4186
     34 F         138.0627  136.7307  166.1002 F       1  UNL1       -0.1659
     35 F         139.5925  137.4530  164.8205 F       1  UNL1       -0.1659
     36 F         137.4784  138.7247  166.5272 F       1  UNL1       -0.1659
@<TRIPOS>BOND
     1    18    19    2
     2    19    17    1
     3    17    16    1
     4    16    15    1
     5     9    15    1
     6     9    10    1
     7    10    11    1
     8    11    12    1
     9    12     5    1
    10     5     6    1
    11     6     7    1
    12     7     1    1
    13     1     2   am
    14     2     3    2
    15     2    20    1
    16    20    21    1
    17    21    23    1
    18    23    24   ar
    19    24    25   ar
    20    25    26    1
    21    25    27   ar
    22    27    28   ar
    23    28    29   ar
    24    29    30   ar
    25    30    33    1
    26    33    34    1
    27    33    35    1
    28    33    36    1
    29    30    31   ar
    30    31    32   ar
    31     7     8    1
    32    12    13    1
    33    13    14    1
    34    14     9    1
    35     8     5    1
    36    32    23   ar
    37    32    27   ar
    38     1     4    1
    39    21    22    1
@<TRIPOS>MOLECULE
*****
 36 39 0 0 0
SMALL
GASTEIGER

@<TRIPOS>ATOM
      1 N         141.5346  139.4604  161.1415 N.am    1  UNL1       -0.3018
      2 C         140.4602  138.8395  160.2988 C.2     1  UNL1        0.2425
      3 O         139.2198  138.2973  160.9447 O.2     1  UNL1       -0.2733
      4 H         142.3488  139.8162  160.7176 H       1  UNL1        0.1495
      5 N         141.1335  139.6501  164.7356 N.3     1  UNL1       -0.2711
      6 C         141.3066  138.5371  163.7450 C.3     1  UNL1        0.0933
      7 C         141.3685  139.5390  162.6302 C.3     1  UNL1        0.1035
      8 C         141.1953  140.6519  163.6209 C.3     1  UNL1        0.0933
      9 C         140.6350  139.8860  169.2017 C.3     1  UNL1        0.0298
     10 C         141.9943  139.6582  168.6098 C.3     1  UNL1        0.0039
     11 C         142.1604  139.5796  167.1211 C.3     1  UNL1        0.0160
     12 C         140.9673  139.7288  166.2243 C.3     1  UNL1        0.0576
     13 C         139.6080  139.9566  166.8163 C.3     1  UNL1        0.0160
     14 C         139.4419  140.0352  168.3049 C.3     1  UNL1        0.0039
     15 C         140.4687  139.9647  170.6903 C.3     1  UNL1        0.1425
     16 O         140.6717  141.2708  171.3997 O.3     1  UNL1       -0.3490
     17 C         141.8715  142.1153  171.0877 C.3     1  UNL1        0.1683
     18 C         140.4201  143.6350  169.5599 C.2     1  UNL1       -0.0023
     19 C         141.7629  143.2352  170.0957 C.2     1  UNL1        0.0056
     20 C         140.6264  138.7609  158.8101 C.3     1  UNL1        0.1747
     21 N         139.6287  138.0055  157.9829 N.pl3   1  UNL1       -0.3093
     22 H         138.7720  137.7256  158.3792 H       1  UNL1        0.1487
     23 C         139.9363  137.6766  156.5521 C.ar    1  UNL1        0.1500
     24 N         139.2572  138.2588  155.3480 N.ar    1  UNL1       -0.1544
     25 N         139.8782  137.6498  154.1260 N.ar    1  UNL1       -0.2476
     26 C         139.5024  137.9471  152.7046 C.3     1  UNL1        0.1537
     27 C         140.9411  136.6912  154.5748 C.ar    1  UNL1        0.0807
     28 C         141.8809  135.8054  153.8119 C.ar    1  UNL1        0.0188
     29 C         142.8566  134.9362  154.5484 C.ar    1  UNL1        0.0054
     30 C         142.8924  134.9528  156.0479 C.ar    1  UNL1        0.0716
     31 C         141.9526  135.8386  156.8108 C.ar    1  UNL1        0.0082
     32 C         140.9770  136.7078  156.0743 C.ar    1  UNL1        0.0503
     33 C         143.8682  134.0836  156.7844 C.3     1  UNL1        0.4186
     34 F         144.8438  133.2143  157.5209 F       1  UNL1       -0.1659
     35 F         143.5471  134.8041  158.0602 F       1  UNL1       -0.1659
     36 F         144.1892  133.3631  155.5086 F       1  UNL1       -0.1659
@<TRIPOS>BOND
     1    18    19    2
     2    19    17    1
     3    17    16    1
     4    16    15    1
     5     9    15    1
     6     9    10    1
     7    10    11    1
     8    11    12    1
     9    12     5    1
    10     5     6    1
    11     6     7    1
    12     7     1    1
    13     1     2   am
    14     2     3    2
    15     2    20    1
    16    20    21    1
    17    21    23    1
    18    23    24   ar
    19    24    25   ar
    20    25    26    1
    21    25    27   ar
    22    27    28   ar
    23    28    29   ar
    24    29    30   ar
    25    30    33    1
    26    33    34    1
    27    33    35    1
    28    33    36    1
    29    30    31   ar
    30    31    32   ar
    31     7     8    1
    32    12    13    1
    33    13    14    1
    34    14     9    1
    35     8     5    1
    36    32    23   ar
    37    32    27   ar
    38     1     4    1
    39    21    22    1
