@<TRIPOS>MOLECULE
*****
 43 47 0 0 0
SMALL
GASTEIGER

@<TRIPOS>ATOM
      1 C         142.2521  141.6154  167.2478 C.ar    1  UNL1        0.1718
      2 C         141.6829  141.8435  165.8789 C.ar    1  UNL1        0.0374
      3 C         141.4179  140.6776  164.9730 C.ar    1  UNL1       -0.0000
      4 C         141.7221  139.2837  165.4360 C.ar    1  UNL1       -0.0119
      5 C         142.2913  139.0556  166.8049 C.ar    1  UNL1        0.0360
      6 C         142.5563  140.2215  167.7108 C.ar    1  UNL1        0.1721
      7 C         141.4571  138.1179  164.5302 C.3     1  UNL1        0.1118
      8 C         140.8879  138.3460  163.1613 C.2     1  UNL1        0.2342
      9 O         140.6229  137.1801  162.2554 O.2     1  UNL1       -0.2742
     10 N         140.5836  139.7399  162.6982 N.am    1  UNL1       -0.2523
     11 C         140.8486  140.9058  163.6041 C.3     1  UNL1        0.1245
     12 C         140.5444  142.2997  163.1410 C.ar    1  UNL1        0.0003
     13 C         141.5924  143.0968  162.4224 C.ar    1  UNL1       -0.0015
     14 C         141.2882  144.4907  161.9594 C.ar    1  UNL1        0.0111
     15 C         139.9361  145.0876  162.2150 C.ar    1  UNL1        0.0577
     16 CL        139.6318  146.4815  161.7519 Cl      1  UNL1       -0.0822
     17 C         138.8881  144.2905  162.9336 C.ar    1  UNL1        0.0111
     18 C         139.1923  142.8965  163.3966 C.ar    1  UNL1       -0.0015
     19 C         140.0144  139.9680  161.3293 C.ar    1  UNL1        0.0545
     20 C         140.9315  140.1816  160.1617 C.ar    1  UNL1        0.0162
     21 C         140.3622  140.4097  158.7927 C.ar    1  UNL1        0.0158
     22 C         138.8759  140.4242  158.5914 C.ar    1  UNL1        0.0480
     23 C         137.9588  140.2106  159.7590 C.ar    1  UNL1        0.0158
     24 C         138.5280  139.9825  161.1279 C.ar    1  UNL1        0.0162
     25 N         138.3067  140.6523  157.2225 N.pl3   1  UNL1       -0.3058
     26 C         138.6728  139.7329  156.0953 C.3     1  UNL1        0.1122
     27 C         137.3713  141.7998  156.9808 C.3     1  UNL1        0.0908
     28 C         137.9012  143.1020  156.4581 C.3     1  UNL1        0.0199
     29 C         139.2404  143.6030  156.9115 C.3     1  UNL1        0.0031
     30 C         139.7703  144.9052  156.3888 C.3     1  UNL1        0.0160
     31 C         138.9611  145.7065  155.4125 C.3     1  UNL1        0.0576
     32 C         137.6219  145.2055  154.9590 C.3     1  UNL1        0.0160
     33 C         137.0920  143.9032  155.4818 C.3     1  UNL1        0.0031
     34 N         139.4910  147.0088  154.8897 N.3     1  UNL1       -0.2716
     35 C         138.9253  148.3043  155.3913 C.3     1  UNL1        0.0896
     36 C         140.5867  147.0156  153.8652 C.3     1  UNL1        0.0896
     37 O         143.1256  139.9933  169.0798 O.3     1  UNL1       -0.4684
     38 C         142.4846  138.9995  170.0025 C.3     1  UNL1        0.2526
     39 O         142.5171  142.7812  168.1537 O.3     1  UNL1       -0.4761
     40 C         141.8157  142.8782  169.4760 C.3     1  UNL1        0.1662
     41 C         142.6099  143.0679  170.7342 C.3     1  UNL1        0.0472
     42 C         139.6649  141.4981  169.9447 C.3     1  UNL1        0.0038
     43 C         140.3199  142.7854  169.5401 C.3     1  UNL1        0.0435
@<TRIPOS>BOND
     1    42    43    1
     2    43    40    1
     3    40    41    1
     4    40    39    1
     5    39     1    1
     6     1     2   ar
     7     2     3   ar
     8     3     4   ar
     9     4     5   ar
    10     5     6   ar
    11     6    37    1
    12    37    38    1
    13     4     7    1
    14     7     8    1
    15     8     9    2
    16     8    10   am
    17    10    19    1
    18    19    20   ar
    19    20    21   ar
    20    21    22   ar
    21    22    25    1
    22    25    26    1
    23    25    27    1
    24    28    27    1
    25    28    29    1
    26    29    30    1
    27    30    31    1
    28    31    34    1
    29    34    35    1
    30    34    36    1
    31    31    32    1
    32    32    33    1
    33    22    23   ar
    34    23    24   ar
    35    10    11    1
    36    11    12    1
    37    12    13   ar
    38    13    14   ar
    39    14    15   ar
    40    15    16    1
    41    15    17   ar
    42    17    18   ar
    43     6     1   ar
    44    24    19   ar
    45    18    12   ar
    46    11     3    1
    47    33    28    1
@<TRIPOS>MOLECULE
*****
 43 47 0 0 0
SMALL
GASTEIGER

@<TRIPOS>ATOM
      1 C         141.5566  140.6530  166.7673 C.ar    1  UNL1        0.1718
      2 C         141.2327  141.0326  165.3528 C.ar    1  UNL1        0.0374
      3 C         141.9982  142.1315  164.6771 C.ar    1  UNL1       -0.0000
      4 C         143.0876  142.8507  165.4159 C.ar    1  UNL1       -0.0119
      5 C         143.4115  142.4710  166.8305 C.ar    1  UNL1        0.0360
      6 C         142.6460  141.3722  167.5062 C.ar    1  UNL1        0.1721
      7 C         143.8531  143.9495  164.7403 C.3     1  UNL1        0.1118
      8 C         143.5292  144.3291  163.3257 C.2     1  UNL1        0.2342
      9 O         144.2947  145.4280  162.6500 O.2     1  UNL1       -0.2742
     10 N         142.4398  143.6099  162.5868 N.am    1  UNL1       -0.2523
     11 C         141.6743  142.5111  163.2625 C.3     1  UNL1        0.1245
     12 C         140.5849  141.7919  162.5237 C.ar    1  UNL1        0.0003
     13 C         139.1760  142.3038  162.5800 C.ar    1  UNL1       -0.0015
     14 C         138.0866  141.5846  161.8412 C.ar    1  UNL1        0.0111
     15 C         138.4060  140.3535  161.0460 C.ar    1  UNL1        0.0577
     16 CL        137.3166  139.6343  160.3072 Cl      1  UNL1       -0.0822
     17 C         139.8148  139.8416  160.9897 C.ar    1  UNL1        0.0111
     18 C         140.9043  140.5608  161.7285 C.ar    1  UNL1       -0.0015
     19 C         142.1159  143.9896  161.1723 C.ar    1  UNL1        0.0545
     20 C         142.8230  143.3154  160.0341 C.ar    1  UNL1        0.0162
     21 C         142.4990  143.6951  158.6195 C.ar    1  UNL1        0.0158
     22 C         141.4681  144.7489  158.3432 C.ar    1  UNL1        0.0480
     23 C         140.7610  145.4231  159.4814 C.ar    1  UNL1        0.0158
     24 C         141.0849  145.0435  160.8959 C.ar    1  UNL1        0.0162
     25 N         141.1442  145.1286  156.9287 N.pl3   1  UNL1       -0.3058
     26 C         142.1960  145.0239  155.8644 C.3     1  UNL1        0.1122
     27 C         139.7684  145.6128  156.5783 C.3     1  UNL1        0.0908
     28 C         139.5846  146.9676  155.9613 C.3     1  UNL1        0.0199
     29 C         140.1165  147.2439  154.5863 C.3     1  UNL1        0.0031
     30 C         139.9328  148.5987  153.9693 C.3     1  UNL1        0.0160
     31 C         139.2171  149.6773  154.7273 C.3     1  UNL1        0.0576
     32 C         138.6852  149.4010  156.1023 C.3     1  UNL1        0.0160
     33 C         138.8690  148.0461  156.7194 C.3     1  UNL1        0.0031
     34 N         139.0334  151.0321  154.1103 N.3     1  UNL1       -0.2716
     35 C         139.3551  151.2460  152.6609 C.3     1  UNL1        0.0896
     36 C         138.5280  152.1730  154.9427 C.3     1  UNL1        0.0896
     37 O         142.9700  140.9926  168.9208 O.3     1  UNL1       -0.4684
     38 C         142.5259  141.8702  170.0533 C.3     1  UNL1        0.2526
     39 O         140.7911  139.5542  167.4430 O.3     1  UNL1       -0.4761
     40 C         139.3946  139.8030  167.9305 C.3     1  UNL1        0.1662
     41 C         139.1680  140.3617  169.3040 C.3     1  UNL1        0.0472
     42 C         137.3959  138.2686  167.2972 C.3     1  UNL1        0.0038
     43 C         138.2245  139.4932  167.0445 C.3     1  UNL1        0.0435
@<TRIPOS>BOND
     1    42    43    1
     2    43    40    1
     3    40    41    1
     4    40    39    1
     5    39     1    1
     6     1     2   ar
     7     2     3   ar
     8     3     4   ar
     9     4     5   ar
    10     5     6   ar
    11     6    37    1
    12    37    38    1
    13     4     7    1
    14     7     8    1
    15     8     9    2
    16     8    10   am
    17    10    19    1
    18    19    20   ar
    19    20    21   ar
    20    21    22   ar
    21    22    25    1
    22    25    26    1
    23    25    27    1
    24    28    27    1
    25    28    29    1
    26    29    30    1
    27    30    31    1
    28    31    34    1
    29    34    35    1
    30    34    36    1
    31    31    32    1
    32    32    33    1
    33    22    23   ar
    34    23    24   ar
    35    10    11    1
    36    11    12    1
    37    12    13   ar
    38    13    14   ar
    39    14    15   ar
    40    15    16    1
    41    15    17   ar
    42    17    18   ar
    43     6     1   ar
    44    24    19   ar
    45    18    12   ar
    46    11     3    1
    47    33    28    1
@<TRIPOS>MOLECULE
*****
 43 47 0 0 0
SMALL
GASTEIGER

@<TRIPOS>ATOM
      1 C         139.7808  141.2504  168.7288 C.ar    1  UNL1        0.1718
      2 C         140.2557  141.4499  167.3201 C.ar    1  UNL1        0.0374
      3 C         139.8123  140.5095  166.2388 C.ar    1  UNL1       -0.0000
      4 C         138.8939  139.3697  166.5663 C.ar    1  UNL1       -0.0119
      5 C         138.4189  139.1703  167.9750 C.ar    1  UNL1        0.0360
      6 C         138.8623  140.1106  169.0563 C.ar    1  UNL1        0.1721
      7 C         138.4505  138.4294  165.4850 C.3     1  UNL1        0.1118
      8 C         138.9255  138.6288  164.0763 C.2     1  UNL1        0.2342
      9 O         138.4820  137.6885  162.9951 O.2     1  UNL1       -0.2742
     10 N         139.8439  139.7687  163.7488 N.am    1  UNL1       -0.2523
     11 C         140.2874  140.7090  164.8300 C.3     1  UNL1        0.1245
     12 C         141.2058  141.8489  164.5026 C.ar    1  UNL1        0.0003
     13 C         140.6382  143.1744  164.0891 C.ar    1  UNL1       -0.0015
     14 C         141.5567  144.3142  163.7616 C.ar    1  UNL1        0.0111
     15 C         143.0426  144.1286  163.8476 C.ar    1  UNL1        0.0577
     16 CL        143.9611  145.2684  163.5201 Cl      1  UNL1       -0.0822
     17 C         143.6102  142.8031  164.2611 C.ar    1  UNL1        0.0111
     18 C         142.6918  141.6632  164.5886 C.ar    1  UNL1       -0.0015
     19 C         140.3189  139.9681  162.3401 C.ar    1  UNL1        0.0545
     20 C         141.6141  139.3585  161.8919 C.ar    1  UNL1        0.0162
     21 C         142.0891  139.5580  160.4831 C.ar    1  UNL1        0.0158
     22 C         141.2689  140.3671  159.5225 C.ar    1  UNL1        0.0480
     23 C         139.9737  140.9767  159.9707 C.ar    1  UNL1        0.0158
     24 C         139.4987  140.7772  161.3794 C.ar    1  UNL1        0.0162
     25 N         141.7439  140.5665  158.1138 N.pl3   1  UNL1       -0.3058
     26 C         142.8950  141.4865  157.8336 C.3     1  UNL1        0.1122
     27 C         141.0677  139.8460  156.9852 C.3     1  UNL1        0.0908
     28 C         141.3952  138.4083  156.7100 C.3     1  UNL1        0.0199
     29 C         142.6288  137.7935  157.3020 C.3     1  UNL1        0.0031
     30 C         142.9562  136.3558  157.0268 C.3     1  UNL1        0.0160
     31 C         142.0502  135.5329  156.1596 C.3     1  UNL1        0.0576
     32 C         140.8167  136.1477  155.5677 C.3     1  UNL1        0.0160
     33 C         140.4892  137.5855  155.8429 C.3     1  UNL1        0.0031
     34 N         142.3777  134.0952  155.8845 N.3     1  UNL1       -0.2716
     35 C         141.3398  133.1901  155.2899 C.3     1  UNL1        0.0896
     36 C         143.7431  133.5625  156.2039 C.3     1  UNL1        0.0896
     37 O         138.3873  139.9111  170.4651 O.3     1  UNL1       -0.4684
     38 C         137.0957  139.1946  170.7266 C.3     1  UNL1        0.2526
     39 O         140.2242  142.1908  169.8101 O.3     1  UNL1       -0.4761
     40 C         141.5568  141.9986  170.4711 C.3     1  UNL1        0.1662
     41 C         141.7980  140.7982  171.3377 C.3     1  UNL1        0.0472
     42 C         143.9992  142.5629  169.7881 C.3     1  UNL1        0.0038
     43 C         142.6484  143.0068  170.2657 C.3     1  UNL1        0.0435
@<TRIPOS>BOND
     1    42    43    1
     2    43    40    1
     3    40    41    1
     4    40    39    1
     5    39     1    1
     6     1     2   ar
     7     2     3   ar
     8     3     4   ar
     9     4     5   ar
    10     5     6   ar
    11     6    37    1
    12    37    38    1
    13     4     7    1
    14     7     8    1
    15     8     9    2
    16     8    10   am
    17    10    19    1
    18    19    20   ar
    19    20    21   ar
    20    21    22   ar
    21    22    25    1
    22    25    26    1
    23    25    27    1
    24    28    27    1
    25    28    29    1
    26    29    30    1
    27    30    31    1
    28    31    34    1
    29    34    35    1
    30    34    36    1
    31    31    32    1
    32    32    33    1
    33    22    23   ar
    34    23    24   ar
    35    10    11    1
    36    11    12    1
    37    12    13   ar
    38    13    14   ar
    39    14    15   ar
    40    15    16    1
    41    15    17   ar
    42    17    18   ar
    43     6     1   ar
    44    24    19   ar
    45    18    12   ar
    46    11     3    1
    47    33    28    1
@<TRIPOS>MOLECULE
*****
 43 47 0 0 0
SMALL
GASTEIGER

@<TRIPOS>ATOM
      1 C         142.9122  135.7555  156.4253 C.ar    1  UNL1        0.1718
      2 C         142.5761  136.7332  157.5121 C.ar    1  UNL1        0.0374
      3 C         141.3876  137.6367  157.3669 C.ar    1  UNL1       -0.0000
      4 C         140.5352  137.5626  156.1349 C.ar    1  UNL1       -0.0119
      5 C         140.8714  136.5850  155.0481 C.ar    1  UNL1        0.0360
      6 C         142.0599  135.6814  155.1933 C.ar    1  UNL1        0.1721
      7 C         139.3468  138.4662  155.9897 C.3     1  UNL1        0.1118
      8 C         139.0106  139.4438  157.0765 C.2     1  UNL1        0.2342
      9 O         137.8221  140.3474  156.9312 O.2     1  UNL1       -0.2742
     10 N         139.8630  139.5180  158.3086 N.am    1  UNL1       -0.2523
     11 C         141.0515  138.6144  158.4538 C.3     1  UNL1        0.1245
     12 C         141.9038  138.6885  159.6858 C.ar    1  UNL1        0.0003
     13 C         143.1580  139.5114  159.6818 C.ar    1  UNL1       -0.0015
     14 C         144.0104  139.5855  160.9139 C.ar    1  UNL1        0.0111
     15 C         143.6086  138.8367  162.1499 C.ar    1  UNL1        0.0577
     16 CL        144.4610  138.9108  163.3820 Cl      1  UNL1       -0.0822
     17 C         142.3545  138.0138  162.1540 C.ar    1  UNL1        0.0111
     18 C         141.5021  137.9397  160.9219 C.ar    1  UNL1       -0.0015
     19 C         139.5269  140.4956  159.3954 C.ar    1  UNL1        0.0545
     20 C         140.2277  141.8204  159.4555 C.ar    1  UNL1        0.0162
     21 C         139.8915  142.7981  160.5424 C.ar    1  UNL1        0.0158
     22 C         138.8546  142.4509  161.5691 C.ar    1  UNL1        0.0480
     23 C         138.1537  141.1260  161.5089 C.ar    1  UNL1        0.0158
     24 C         138.4899  140.1484  160.4221 C.ar    1  UNL1        0.0162
     25 N         138.5184  143.4285  162.6559 N.pl3   1  UNL1       -0.3058
     26 C         138.8209  144.8863  162.4732 C.3     1  UNL1        0.1122
     27 C         137.8798  142.9484  163.9254 C.3     1  UNL1        0.0908
     28 C         138.7056  142.2436  164.9604 C.3     1  UNL1        0.0199
     29 C         139.7494  142.9987  165.7289 C.3     1  UNL1        0.0031
     30 C         140.5751  142.2938  166.7638 C.3     1  UNL1        0.0160
     31 C         140.3573  140.8338  167.0304 C.3     1  UNL1        0.0576
     32 C         139.3135  140.0787  166.2620 C.3     1  UNL1        0.0160
     33 C         138.4877  140.7836  165.2270 C.3     1  UNL1        0.0031
     34 N         141.1830  140.1290  168.0654 N.3     1  UNL1       -0.2716
     35 C         140.6667  139.9851  169.4664 C.3     1  UNL1        0.0896
     36 C         142.5253  139.5681  167.6995 C.3     1  UNL1        0.0896
     37 O         142.3960  134.7038  154.1064 O.3     1  UNL1       -0.4684
     38 C         141.3055  134.1264  153.2535 C.3     1  UNL1        0.2526
     39 O         144.1007  134.8520  156.5706 O.3     1  UNL1       -0.4761
     40 C         143.9285  133.4699  157.1274 C.3     1  UNL1        0.1662
     41 C         144.9765  132.8889  158.0297 C.3     1  UNL1        0.0472
     42 C         142.8433  131.3958  156.0001 C.3     1  UNL1        0.0038
     43 C         142.7082  132.6687  156.7820 C.3     1  UNL1        0.0435
@<TRIPOS>BOND
     1    42    43    1
     2    43    40    1
     3    40    41    1
     4    40    39    1
     5    39     1    1
     6     1     2   ar
     7     2     3   ar
     8     3     4   ar
     9     4     5   ar
    10     5     6   ar
    11     6    37    1
    12    37    38    1
    13     4     7    1
    14     7     8    1
    15     8     9    2
    16     8    10   am
    17    10    19    1
    18    19    20   ar
    19    20    21   ar
    20    21    22   ar
    21    22    25    1
    22    25    26    1
    23    25    27    1
    24    28    27    1
    25    28    29    1
    26    29    30    1
    27    30    31    1
    28    31    34    1
    29    34    35    1
    30    34    36    1
    31    31    32    1
    32    32    33    1
    33    22    23   ar
    34    23    24   ar
    35    10    11    1
    36    11    12    1
    37    12    13   ar
    38    13    14   ar
    39    14    15   ar
    40    15    16    1
    41    15    17   ar
    42    17    18   ar
    43     6     1   ar
    44    24    19   ar
    45    18    12   ar
    46    11     3    1
    47    33    28    1
@<TRIPOS>MOLECULE
*****
 43 47 0 0 0
SMALL
GASTEIGER

@<TRIPOS>ATOM
      1 C         136.0448  140.9205  155.9921 C.ar    1  UNL1        0.1718
      2 C         136.9195  141.0291  157.2058 C.ar    1  UNL1        0.0374
      3 C         137.8802  142.1735  157.3379 C.ar    1  UNL1       -0.0000
      4 C         137.9663  143.2091  156.2563 C.ar    1  UNL1       -0.0119
      5 C         137.0917  143.1005  155.0426 C.ar    1  UNL1        0.0360
      6 C         136.1309  141.9561  154.9105 C.ar    1  UNL1        0.1721
      7 C         138.9270  144.3535  156.3885 C.3     1  UNL1        0.1118
      8 C         139.8017  144.4621  157.6022 C.2     1  UNL1        0.2342
      9 O         140.7624  145.6065  157.7343 O.2     1  UNL1       -0.2742
     10 N         139.7156  143.4264  158.6839 N.am    1  UNL1       -0.2523
     11 C         138.7549  142.2821  158.5517 C.3     1  UNL1        0.1245
     12 C         138.6688  141.2464  159.6333 C.ar    1  UNL1        0.0003
     13 C         137.8796  141.5257  160.8781 C.ar    1  UNL1       -0.0015
     14 C         137.7935  140.4900  161.9597 C.ar    1  UNL1        0.0111
     15 C         138.4965  139.1750  161.7966 C.ar    1  UNL1        0.0577
     16 CL        138.4104  138.1393  162.8782 Cl      1  UNL1       -0.0822
     17 C         139.2857  138.8957  160.5520 C.ar    1  UNL1        0.0111
     18 C         139.3718  139.9314  159.4703 C.ar    1  UNL1       -0.0015
     19 C         140.5903  143.5351  159.8976 C.ar    1  UNL1        0.0545
     20 C         141.8848  142.7798  159.9592 C.ar    1  UNL1        0.0162
     21 C         142.7594  142.8885  161.1730 C.ar    1  UNL1        0.0158
     22 C         142.3395  143.7524  162.3251 C.ar    1  UNL1        0.0480
     23 C         141.0450  144.5077  162.2635 C.ar    1  UNL1        0.0158
     24 C         140.1704  144.3990  161.0497 C.ar    1  UNL1        0.0162
     25 N         143.2142  143.8611  163.5388 N.pl3   1  UNL1       -0.3058
     26 C         143.8667  145.1684  163.8785 C.3     1  UNL1        0.1122
     27 C         143.4364  142.6625  164.4129 C.3     1  UNL1        0.0908
     28 C         142.6108  142.4736  165.6509 C.3     1  UNL1        0.0199
     29 C         141.1145  142.4290  165.5550 C.3     1  UNL1        0.0031
     30 C         140.2889  142.2402  166.7930 C.3     1  UNL1        0.0160
     31 C         140.9596  142.0959  168.1270 C.3     1  UNL1        0.0576
     32 C         142.4558  142.1405  168.2229 C.3     1  UNL1        0.0160
     33 C         143.2814  142.3294  166.9848 C.3     1  UNL1        0.0031
     34 N         140.1339  141.9071  169.3650 N.3     1  UNL1       -0.2716
     35 C         140.0257  143.0148  170.3705 C.3     1  UNL1        0.0896
     36 C         139.4165  140.6104  169.5974 C.3     1  UNL1        0.0896
     37 O         135.2563  141.8475  153.6967 O.3     1  UNL1       -0.4684
     38 C         135.6103  140.8865  152.6008 C.3     1  UNL1        0.2526
     39 O         135.0841  139.7761  155.8600 O.3     1  UNL1       -0.4761
     40 C         133.6951  139.8952  156.4135 C.3     1  UNL1        0.1662
     41 C         132.7586  140.9346  155.8723 C.3     1  UNL1        0.0472
     42 C         131.7777  138.7765  157.7634 C.3     1  UNL1        0.0038
     43 C         133.2425  138.9750  157.5083 C.3     1  UNL1        0.0435
@<TRIPOS>BOND
     1    42    43    1
     2    43    40    1
     3    40    41    1
     4    40    39    1
     5    39     1    1
     6     1     2   ar
     7     2     3   ar
     8     3     4   ar
     9     4     5   ar
    10     5     6   ar
    11     6    37    1
    12    37    38    1
    13     4     7    1
    14     7     8    1
    15     8     9    2
    16     8    10   am
    17    10    19    1
    18    19    20   ar
    19    20    21   ar
    20    21    22   ar
    21    22    25    1
    22    25    26    1
    23    25    27    1
    24    28    27    1
    25    28    29    1
    26    29    30    1
    27    30    31    1
    28    31    34    1
    29    34    35    1
    30    34    36    1
    31    31    32    1
    32    32    33    1
    33    22    23   ar
    34    23    24   ar
    35    10    11    1
    36    11    12    1
    37    12    13   ar
    38    13    14   ar
    39    14    15   ar
    40    15    16    1
    41    15    17   ar
    42    17    18   ar
    43     6     1   ar
    44    24    19   ar
    45    18    12   ar
    46    11     3    1
    47    33    28    1
@<TRIPOS>MOLECULE
*****
 43 47 0 0 0
SMALL
GASTEIGER

@<TRIPOS>ATOM
      1 C         140.9882  140.8919  165.8032 C.ar    1  UNL1        0.1718
      2 C         141.0833  141.0869  164.3190 C.ar    1  UNL1        0.0374
      3 C         140.6304  142.3766  163.7014 C.ar    1  UNL1       -0.0000
      4 C         140.0824  143.4714  164.5680 C.ar    1  UNL1       -0.0119
      5 C         139.9874  143.2765  166.0522 C.ar    1  UNL1        0.0360
      6 C         140.4403  141.9868  166.6698 C.ar    1  UNL1        0.1721
      7 C         139.6295  144.7612  163.9504 C.3     1  UNL1        0.1118
      8 C         139.7246  144.9561  162.4662 C.2     1  UNL1        0.2342
      9 O         139.2717  146.2459  161.8486 O.2     1  UNL1       -0.2742
     10 N         140.2725  143.8613  161.5995 N.am    1  UNL1       -0.2523
     11 C         140.7254  142.5715  162.2171 C.3     1  UNL1        0.1245
     12 C         141.2733  141.4767  161.3505 C.ar    1  UNL1        0.0003
     13 C         142.7267  141.4704  160.9791 C.ar    1  UNL1       -0.0015
     14 C         143.2746  140.3756  160.1125 C.ar    1  UNL1        0.0111
     15 C         142.3693  139.2870  159.6172 C.ar    1  UNL1        0.0577
     16 CL        142.9172  138.1922  158.7506 Cl      1  UNL1       -0.0822
     17 C         140.9160  139.2932  159.9885 C.ar    1  UNL1        0.0111
     18 C         140.3680  140.3881  160.8551 C.ar    1  UNL1       -0.0015
     19 C         140.3676  144.0562  160.1153 C.ar    1  UNL1        0.0545
     20 C         141.4552  144.9138  159.5396 C.ar    1  UNL1        0.0162
     21 C         141.5502  145.1088  158.0553 C.ar    1  UNL1        0.0158
     22 C         140.5576  144.4460  157.1468 C.ar    1  UNL1        0.0480
     23 C         139.4699  143.5883  157.7225 C.ar    1  UNL1        0.0158
     24 C         139.3749  143.3934  159.2067 C.ar    1  UNL1        0.0162
     25 N         140.6526  144.6409  155.6626 N.pl3   1  UNL1       -0.3058
     26 C         141.8472  144.1287  154.9138 C.3     1  UNL1        0.1122
     27 C         139.5531  145.3481  154.9270 C.3     1  UNL1        0.0908
     28 C         139.5776  146.8423  154.7974 C.3     1  UNL1        0.0199
     29 C         140.3452  147.4857  153.6808 C.3     1  UNL1        0.0031
     30 C         140.3697  148.9799  153.5512 C.3     1  UNL1        0.0160
     31 C         139.6266  149.8307  154.5381 C.3     1  UNL1        0.0576
     32 C         138.8589  149.1872  155.6547 C.3     1  UNL1        0.0160
     33 C         138.8345  147.6930  155.7843 C.3     1  UNL1        0.0031
     34 N         139.6511  151.3248  154.4085 N.3     1  UNL1       -0.2716
     35 C         138.5048  152.1416  154.9270 C.3     1  UNL1        0.0896
     36 C         140.8220  152.0023  153.7603 C.3     1  UNL1        0.0896
     37 O         140.3452  141.7919  168.1541 O.3     1  UNL1       -0.4684
     38 C         140.3838  142.9789  169.0704 C.3     1  UNL1        0.2526
     39 O         141.4411  139.6022  166.4208 O.3     1  UNL1       -0.4761
     40 C         142.2038  138.6048  165.6002 C.3     1  UNL1        0.1662
     41 C         143.7033  138.5913  165.6393 C.3     1  UNL1        0.0472
     42 C         141.6877  137.6089  163.2567 C.3     1  UNL1        0.0038
     43 C         141.4672  137.6209  164.7403 C.3     1  UNL1        0.0435
@<TRIPOS>BOND
     1    42    43    1
     2    43    40    1
     3    40    41    1
     4    40    39    1
     5    39     1    1
     6     1     2   ar
     7     2     3   ar
     8     3     4   ar
     9     4     5   ar
    10     5     6   ar
    11     6    37    1
    12    37    38    1
    13     4     7    1
    14     7     8    1
    15     8     9    2
    16     8    10   am
    17    10    19    1
    18    19    20   ar
    19    20    21   ar
    20    21    22   ar
    21    22    25    1
    22    25    26    1
    23    25    27    1
    24    28    27    1
    25    28    29    1
    26    29    30    1
    27    30    31    1
    28    31    34    1
    29    34    35    1
    30    34    36    1
    31    31    32    1
    32    32    33    1
    33    22    23   ar
    34    23    24   ar
    35    10    11    1
    36    11    12    1
    37    12    13   ar
    38    13    14   ar
    39    14    15   ar
    40    15    16    1
    41    15    17   ar
    42    17    18   ar
    43     6     1   ar
    44    24    19   ar
    45    18    12   ar
    46    11     3    1
    47    33    28    1
@<TRIPOS>MOLECULE
*****
 43 47 0 0 0
SMALL
GASTEIGER

@<TRIPOS>ATOM
      1 C         140.2762  141.2980  168.4832 C.ar    1  UNL1        0.1718
      2 C         140.5777  141.6688  167.0614 C.ar    1  UNL1        0.0374
      3 C         139.8935  140.9489  165.9373 C.ar    1  UNL1       -0.0000
      4 C         138.9078  139.8582  166.2349 C.ar    1  UNL1       -0.0119
      5 C         138.6062  139.4875  167.6567 C.ar    1  UNL1        0.0360
      6 C         139.2904  140.2073  168.7808 C.ar    1  UNL1        0.1721
      7 C         138.2236  139.1383  165.1108 C.3     1  UNL1        0.1118
      8 C         138.5251  139.5091  163.6890 C.2     1  UNL1        0.2342
      9 O         137.8410  138.7892  162.5649 O.2     1  UNL1       -0.2742
     10 N         139.5110  140.5999  163.3913 N.am    1  UNL1       -0.2523
     11 C         140.1951  141.3198  164.5154 C.3     1  UNL1        0.1245
     12 C         141.1809  142.4104  164.2177 C.ar    1  UNL1        0.0003
     13 C         142.6413  142.0893  164.0979 C.ar    1  UNL1       -0.0015
     14 C         143.6270  143.1800  163.8003 C.ar    1  UNL1        0.0111
     15 C         143.1525  144.5918  163.6224 C.ar    1  UNL1        0.0577
     16 CL        144.1383  145.6825  163.3247 Cl      1  UNL1       -0.0822
     17 C         141.6922  144.9129  163.7421 C.ar    1  UNL1        0.0111
     18 C         140.7064  143.8222  164.0398 C.ar    1  UNL1       -0.0015
     19 C         139.8125  140.9706  161.9695 C.ar    1  UNL1        0.0545
     20 C         138.9520  141.9714  161.2567 C.ar    1  UNL1        0.0162
     21 C         139.2537  142.3422  159.8348 C.ar    1  UNL1        0.0158
     22 C         140.4157  141.7122  159.1258 C.ar    1  UNL1        0.0480
     23 C         141.2762  140.7114  159.8386 C.ar    1  UNL1        0.0158
     24 C         140.9746  140.3407  161.2604 C.ar    1  UNL1        0.0162
     25 N         140.7173  142.0830  157.7041 N.pl3   1  UNL1       -0.3058
     26 C         140.0438  141.3534  156.5797 C.3     1  UNL1        0.1122
     27 C         141.6923  143.1834  157.4066 C.3     1  UNL1        0.0908
     28 C         141.2270  144.4317  156.7173 C.3     1  UNL1        0.0199
     29 C         140.3360  145.3992  157.4386 C.3     1  UNL1        0.0031
     30 C         139.8707  146.6475  156.7493 C.3     1  UNL1        0.0160
     31 C         140.2963  146.9284  155.3386 C.3     1  UNL1        0.0576
     32 C         141.1872  145.9609  154.6173 C.3     1  UNL1        0.0160
     33 C         141.6525  144.7126  155.3066 C.3     1  UNL1        0.0031
     34 N         139.8310  148.1767  154.6493 N.3     1  UNL1       -0.2716
     35 C         140.3761  148.5353  153.2987 C.3     1  UNL1        0.0896
     36 C         138.8205  149.0664  155.3107 C.3     1  UNL1        0.0896
     37 O         138.9888  139.8365  170.2027 O.3     1  UNL1       -0.4684
     38 C         137.5896  139.4723  170.6021 C.3     1  UNL1        0.2526
     39 O         140.9604  142.0179  169.6073 O.3     1  UNL1       -0.4761
     40 C         142.3313  141.5947  170.0447 C.3     1  UNL1        0.1662
     41 C         143.5123  142.4775  169.7692 C.3     1  UNL1        0.0472
     42 C         142.5990  139.0114  169.9749 C.3     1  UNL1        0.0038
     43 C         142.5213  140.2886  170.7575 C.3     1  UNL1        0.0435
@<TRIPOS>BOND
     1    42    43    1
     2    43    40    1
     3    40    41    1
     4    40    39    1
     5    39     1    1
     6     1     2   ar
     7     2     3   ar
     8     3     4   ar
     9     4     5   ar
    10     5     6   ar
    11     6    37    1
    12    37    38    1
    13     4     7    1
    14     7     8    1
    15     8     9    2
    16     8    10   am
    17    10    19    1
    18    19    20   ar
    19    20    21   ar
    20    21    22   ar
    21    22    25    1
    22    25    26    1
    23    25    27    1
    24    28    27    1
    25    28    29    1
    26    29    30    1
    27    30    31    1
    28    31    34    1
    29    34    35    1
    30    34    36    1
    31    31    32    1
    32    32    33    1
    33    22    23   ar
    34    23    24   ar
    35    10    11    1
    36    11    12    1
    37    12    13   ar
    38    13    14   ar
    39    14    15   ar
    40    15    16    1
    41    15    17   ar
    42    17    18   ar
    43     6     1   ar
    44    24    19   ar
    45    18    12   ar
    46    11     3    1
    47    33    28    1
@<TRIPOS>MOLECULE
*****
 43 47 0 0 0
SMALL
GASTEIGER

@<TRIPOS>ATOM
      1 C         140.0905  141.2771  168.4714 C.ar    1  UNL1        0.1718
      2 C         140.5134  141.4462  167.0422 C.ar    1  UNL1        0.0374
      3 C         139.9919  140.5126  165.9903 C.ar    1  UNL1       -0.0000
      4 C         139.0476  139.4100  166.3675 C.ar    1  UNL1       -0.0119
      5 C         138.6247  139.2409  167.7967 C.ar    1  UNL1        0.0360
      6 C         139.1462  140.1745  168.8486 C.ar    1  UNL1        0.1721
      7 C         138.5261  138.4764  165.3156 C.3     1  UNL1        0.1118
      8 C         138.9490  138.6455  163.8864 C.2     1  UNL1        0.2342
      9 O         138.4275  137.7120  162.8345 O.2     1  UNL1       -0.2742
     10 N         139.8934  139.7482  163.5091 N.am    1  UNL1       -0.2523
     11 C         140.4148  140.6818  164.5610 C.3     1  UNL1        0.1245
     12 C         141.3592  141.7844  164.1838 C.ar    1  UNL1        0.0003
     13 C         140.8273  143.1484  163.8570 C.ar    1  UNL1       -0.0015
     14 C         141.7716  144.2510  163.4798 C.ar    1  UNL1        0.0111
     15 C         143.2479  143.9898  163.4293 C.ar    1  UNL1        0.0577
     16 CL        144.1922  145.0924  163.0521 Cl      1  UNL1       -0.0822
     17 C         143.7797  142.6259  163.7561 C.ar    1  UNL1        0.0111
     18 C         142.8354  141.5232  164.1334 C.ar    1  UNL1       -0.0015
     19 C         140.3162  139.9173  162.0800 C.ar    1  UNL1        0.0545
     20 C         141.4777  139.1341  161.5438 C.ar    1  UNL1        0.0162
     21 C         141.9006  139.3032  160.1146 C.ar    1  UNL1        0.0158
     22 C         141.1620  140.2555  159.2216 C.ar    1  UNL1        0.0480
     23 C         140.0005  141.0387  159.7577 C.ar    1  UNL1        0.0158
     24 C         139.5776  140.8696  161.1869 C.ar    1  UNL1        0.0162
     25 N         141.5848  140.4246  157.7924 N.pl3   1  UNL1       -0.3058
     26 C         140.8894  141.4253  156.9179 C.3     1  UNL1        0.1122
     27 C         142.7032  139.5929  157.2377 C.3     1  UNL1        0.0908
     28 C         143.9427  140.2559  156.7143 C.3     1  UNL1        0.0199
     29 C         144.4828  139.8791  155.3666 C.3     1  UNL1        0.0031
     30 C         145.7223  140.5422  154.8432 C.3     1  UNL1        0.0160
     31 C         146.4217  141.5822  155.6675 C.3     1  UNL1        0.0576
     32 C         145.8816  141.9590  157.0152 C.3     1  UNL1        0.0160
     33 C         144.6420  141.2958  157.5386 C.3     1  UNL1        0.0031
     34 N         147.6612  142.2452  155.1441 N.3     1  UNL1       -0.2716
     35 C         147.5495  143.4049  154.1993 C.3     1  UNL1        0.0896
     36 C         149.0124  141.7487  155.5656 C.3     1  UNL1        0.0896
     37 O         138.7232  140.0053  170.2778 O.3     1  UNL1       -0.4684
     38 C         137.3692  139.4449  170.5980 C.3     1  UNL1        0.2526
     39 O         140.6120  142.2107  169.5233 O.3     1  UNL1       -0.4761
     40 C         142.0629  142.1783  169.9022 C.3     1  UNL1        0.1662
     41 C         142.6826  143.3535  170.5985 C.3     1  UNL1        0.0472
     42 C         142.6875  139.6961  170.3482 C.3     1  UNL1        0.0038
     43 C         142.8942  140.9707  169.5848 C.3     1  UNL1        0.0435
@<TRIPOS>BOND
     1    42    43    1
     2    43    40    1
     3    40    41    1
     4    40    39    1
     5    39     1    1
     6     1     2   ar
     7     2     3   ar
     8     3     4   ar
     9     4     5   ar
    10     5     6   ar
    11     6    37    1
    12    37    38    1
    13     4     7    1
    14     7     8    1
    15     8     9    2
    16     8    10   am
    17    10    19    1
    18    19    20   ar
    19    20    21   ar
    20    21    22   ar
    21    22    25    1
    22    25    26    1
    23    25    27    1
    24    28    27    1
    25    28    29    1
    26    29    30    1
    27    30    31    1
    28    31    34    1
    29    34    35    1
    30    34    36    1
    31    31    32    1
    32    32    33    1
    33    22    23   ar
    34    23    24   ar
    35    10    11    1
    36    11    12    1
    37    12    13   ar
    38    13    14   ar
    39    14    15   ar
    40    15    16    1
    41    15    17   ar
    42    17    18   ar
    43     6     1   ar
    44    24    19   ar
    45    18    12   ar
    46    11     3    1
    47    33    28    1
@<TRIPOS>MOLECULE
*****
 43 47 0 0 0
SMALL
GASTEIGER

@<TRIPOS>ATOM
      1 C         140.4686  140.4577  168.6551 C.ar    1  UNL1        0.1718
      2 C         141.0818  140.3605  167.2896 C.ar    1  UNL1        0.0374
      3 C         140.3143  139.7292  166.1660 C.ar    1  UNL1       -0.0000
      4 C         138.9336  139.1952  166.4079 C.ar    1  UNL1       -0.0119
      5 C         138.3205  139.2924  167.7733 C.ar    1  UNL1        0.0360
      6 C         139.0880  139.9236  168.8969 C.ar    1  UNL1        0.1721
      7 C         138.1662  138.5640  165.2843 C.3     1  UNL1        0.1118
      8 C         138.7793  138.4668  163.9188 C.2     1  UNL1        0.2342
      9 O         138.0118  137.8355  162.7952 O.2     1  UNL1       -0.2742
     10 N         140.1601  139.0008  163.6769 N.am    1  UNL1       -0.2523
     11 C         140.9276  139.6320  164.8005 C.3     1  UNL1        0.1245
     12 C         142.3082  140.1660  164.5587 C.ar    1  UNL1        0.0003
     13 C         142.4979  141.5959  164.1467 C.ar    1  UNL1       -0.0015
     14 C         143.8785  142.1299  163.9049 C.ar    1  UNL1        0.0111
     15 C         145.0696  141.2342  164.0749 C.ar    1  UNL1        0.0577
     16 CL        146.4503  141.7682  163.8331 Cl      1  UNL1       -0.0822
     17 C         144.8800  139.8044  164.4869 C.ar    1  UNL1        0.0111
     18 C         143.4993  139.2703  164.7287 C.ar    1  UNL1       -0.0015
     19 C         140.7732  138.9036  162.3114 C.ar    1  UNL1        0.0545
     20 C         140.3750  139.8744  161.2396 C.ar    1  UNL1        0.0162
     21 C         140.9883  139.7772  159.8741 C.ar    1  UNL1        0.0158
     22 C         141.9997  138.7091  159.5805 C.ar    1  UNL1        0.0480
     23 C         142.3979  137.7383  160.6523 C.ar    1  UNL1        0.0158
     24 C         141.7847  137.8355  162.0178 C.ar    1  UNL1        0.0162
     25 N         142.6128  138.6119  158.2150 N.pl3   1  UNL1       -0.3058
     26 C         142.3093  137.4329  157.3387 C.3     1  UNL1        0.1122
     27 C         143.5296  139.6937  157.7258 C.3     1  UNL1        0.0908
     28 C         142.9778  141.0450  157.3803 C.3     1  UNL1        0.0199
     29 C         142.1051  141.2123  156.1719 C.3     1  UNL1        0.0031
     30 C         141.5533  142.5636  155.8264 C.3     1  UNL1        0.0160
     31 C         141.8743  143.7478  156.6894 C.3     1  UNL1        0.0576
     32 C         142.7470  143.5806  157.8979 C.3     1  UNL1        0.0160
     33 C         143.2988  142.2292  158.2433 C.3     1  UNL1        0.0031
     34 N         141.3225  145.0992  156.3440 N.3     1  UNL1       -0.2716
     35 C         141.2639  145.5416  154.9119 C.3     1  UNL1        0.0896
     36 C         140.8293  146.0081  157.4306 C.3     1  UNL1        0.0896
     37 O         138.4747  140.0208  170.2625 O.3     1  UNL1       -0.4684
     38 C         137.2330  139.2432  170.5840 C.3     1  UNL1        0.2526
     39 O         141.2361  141.0889  169.7787 O.3     1  UNL1       -0.4761
     40 C         141.4556  142.5726  169.7965 C.3     1  UNL1        0.1662
     41 C         140.3522  143.4990  169.3789 C.3     1  UNL1        0.0472
     42 C         144.0497  142.4361  169.8415 C.3     1  UNL1        0.0038
     43 C         142.7784  143.1300  170.2319 C.3     1  UNL1        0.0435
@<TRIPOS>BOND
     1    42    43    1
     2    43    40    1
     3    40    41    1
     4    40    39    1
     5    39     1    1
     6     1     2   ar
     7     2     3   ar
     8     3     4   ar
     9     4     5   ar
    10     5     6   ar
    11     6    37    1
    12    37    38    1
    13     4     7    1
    14     7     8    1
    15     8     9    2
    16     8    10   am
    17    10    19    1
    18    19    20   ar
    19    20    21   ar
    20    21    22   ar
    21    22    25    1
    22    25    26    1
    23    25    27    1
    24    28    27    1
    25    28    29    1
    26    29    30    1
    27    30    31    1
    28    31    34    1
    29    34    35    1
    30    34    36    1
    31    31    32    1
    32    32    33    1
    33    22    23   ar
    34    23    24   ar
    35    10    11    1
    36    11    12    1
    37    12    13   ar
    38    13    14   ar
    39    14    15   ar
    40    15    16    1
    41    15    17   ar
    42    17    18   ar
    43     6     1   ar
    44    24    19   ar
    45    18    12   ar
    46    11     3    1
    47    33    28    1
