@<TRIPOS>MOLECULE
*****
 35 39 0 0 0
SMALL
GASTEIGER

@<TRIPOS>ATOM
      1 C         142.4554  137.8433  158.6056 C.ar    1  UNL1        0.1473
      2 C         142.9093  137.5748  160.0099 C.ar    1  UNL1        0.0390
      3 C         142.0278  137.9429  161.1663 C.ar    1  UNL1        0.0208
      4 C         140.6925  138.5796  160.9185 C.ar    1  UNL1        0.0683
      5 C         140.2386  138.8481  159.5143 C.ar    1  UNL1        0.0208
      6 C         138.8811  139.4828  159.5793 C.ar    1  UNL1        0.0207
      7 C         138.4959  139.6066  161.0237 C.ar    1  UNL1        0.0842
      8 N         139.6154  139.0484  161.8514 N.ar    1  UNL1       -0.2609
      9 C         139.6516  138.9723  163.3490 C.2     1  UNL1        0.3249
     10 O         140.8453  138.3845  164.0415 O.2     1  UNL1       -0.2488
     11 N         138.4939  139.4839  164.1542 N.am    1  UNL1       -0.2484
     12 C         141.1201  138.4800  158.3578 C.ar    1  UNL1        0.0390
     13 H         137.7105  139.8697  163.6997 H       1  UNL1        0.1581
     14 C         138.5301  139.4078  165.6518 C.ar    1  UNL1        0.1773
     15 C         139.4641  140.1626  166.5507 C.ar    1  UNL1        0.0734
     16 C         139.1499  139.7849  167.9679 C.ar    1  UNL1        0.1549
     17 O         138.0217  138.7965  167.9449 O.2     1  UNL1       -0.3565
     18 N         137.6387  138.5635  166.5135 N.ar    1  UNL1       -0.0620
     19 C         139.8422  140.3042  169.1930 C.3     1  UNL1        0.0539
     20 C         138.5512  140.2318  169.9533 C.3     1  UNL1        0.0076
     21 C         141.1333  140.3766  168.4327 C.3     1  UNL1        0.0076
     22 C         140.5346  140.8235  170.4181 C.3     1  UNL1        0.0076
     23 O         143.3370  137.4751  157.4491 O.3     1  UNL1       -0.4363
     24 C         144.9417  132.3217  157.7903 C.3     1  UNL1        0.0175
     25 C         144.1044  133.0875  156.8093 C.3     1  UNL1        0.0589
     26 C         143.8486  134.5500  157.0225 C.3     1  UNL1        0.0481
     27 C         143.0113  135.3158  156.0415 C.ar    1  UNL1        0.0476
     28 C         142.4297  134.6191  154.8472 C.ar    1  UNL1        0.0772
     29 N         141.5924  135.3849  153.8662 N.ar    1  UNL1       -0.2271
     30 C         141.3366  136.8475  154.0795 C.ar    1  UNL1        0.2012
     31 N         141.9181  137.5443  155.2738 N.ar    1  UNL1       -0.1893
     32 C         142.7555  136.7784  156.2549 C.ar    1  UNL1        0.2282
     33 C         142.6855  133.1566  154.6340 C.3     1  UNL1        0.1150
     34 N         143.5229  132.3908  155.6150 N.3     1  UNL1       -0.2933
     35 H         144.3063  132.0002  155.0915 H       1  UNL1        0.1236
@<TRIPOS>BOND
     1    25    24    1
     2    25    26    1
     3    26    27    1
     4    27    28   ar
     5    28    29   ar
     6    29    30   ar
     7    30    31   ar
     8    31    32   ar
     9    32    23    1
    10    23     1    1
    11     1     2   ar
    12     2     3   ar
    13     3     4   ar
    14     4     5   ar
    15     5     6   ar
    16     6     7   ar
    17     7     8   ar
    18     8     9   am
    19     9    10    2
    20     9    11   am
    21    11    14    1
    22    14    15   ar
    23    15    16   ar
    24    16    19    1
    25    19    20    1
    26    19    21    1
    27    19    22    1
    28    16    17   ar
    29    17    18   ar
    30     5    12   ar
    31    28    33    1
    32    33    34    1
    33    34    25    1
    34    32    27   ar
    35    12     1   ar
    36     8     4   ar
    37    18    14   ar
    38    11    13    1
    39    34    35    1
@<TRIPOS>MOLECULE
*****
 35 39 0 0 0
SMALL
GASTEIGER

@<TRIPOS>ATOM
      1 C         142.4321  137.7177  158.6095 C.ar    1  UNL1        0.1473
      2 C         142.8700  137.4324  160.0155 C.ar    1  UNL1        0.0390
      3 C         142.0003  137.8369  161.1687 C.ar    1  UNL1        0.0208
      4 C         140.6925  138.5268  160.9158 C.ar    1  UNL1        0.0683
      5 C         140.2546  138.8121  159.5099 C.ar    1  UNL1        0.0208
      6 C         138.9236  139.5011  159.5698 C.ar    1  UNL1        0.0207
      7 C         138.5389  139.6417  161.0128 C.ar    1  UNL1        0.0842
      8 N         139.6322  139.0395  161.8447 N.ar    1  UNL1       -0.2609
      9 C         139.6602  138.9634  163.3425 C.2     1  UNL1        0.3249
     10 O         140.8269  138.3286  164.0395 O.2     1  UNL1       -0.2488
     11 N         138.5215  139.5221  164.1433 N.am    1  UNL1       -0.2484
     12 C         141.1244  138.4076  158.3567 C.ar    1  UNL1        0.0390
     13 H         137.7557  139.9387  163.6859 H       1  UNL1        0.1581
     14 C         138.5495  139.4460  165.6412 C.ar    1  UNL1        0.1773
     15 C         139.4902  140.1875  166.5442 C.ar    1  UNL1        0.0734
     16 C         139.1639  139.8148  167.9600 C.ar    1  UNL1        0.1549
     17 O         138.0216  138.8430  167.9320 O.2     1  UNL1       -0.3565
     18 N         137.6419  138.6150  166.4989 N.ar    1  UNL1       -0.0620
     19 C         139.8580  140.3245  169.1882 C.3     1  UNL1        0.0539
     20 C         141.1371  140.4473  168.4144 C.3     1  UNL1        0.0076
     21 C         138.5788  140.2016  169.9620 C.3     1  UNL1        0.0076
     22 C         140.5520  140.8341  170.4164 C.3     1  UNL1        0.0076
     23 O         143.3019  137.3132  157.4563 O.3     1  UNL1       -0.4363
     24 C         141.8052  138.4451  152.3840 C.3     1  UNL1        0.0175
     25 C         142.0173  137.1706  153.1460 C.3     1  UNL1        0.0589
     26 C         142.4455  137.2181  154.5827 C.3     1  UNL1        0.0481
     27 C         142.6576  135.9436  155.3447 C.ar    1  UNL1        0.0476
     28 C         142.4415  134.6215  154.6699 C.ar    1  UNL1        0.0772
     29 N         142.6536  133.3470  155.4318 N.ar    1  UNL1       -0.2271
     30 C         143.0818  133.3945  156.8686 C.ar    1  UNL1        0.2012
     31 N         143.2979  134.7166  157.5435 N.ar    1  UNL1       -0.1893
     32 C         143.0858  135.9911  156.7815 C.ar    1  UNL1        0.2282
     33 C         142.0133  134.5740  153.2331 C.3     1  UNL1        0.1150
     34 N         141.8012  135.8485  152.4711 N.3     1  UNL1       -0.2933
     35 H         140.8349  135.8391  152.1446 H       1  UNL1        0.1236
@<TRIPOS>BOND
     1    25    24    1
     2    25    26    1
     3    26    27    1
     4    27    28   ar
     5    28    29   ar
     6    29    30   ar
     7    30    31   ar
     8    31    32   ar
     9    32    23    1
    10    23     1    1
    11     1     2   ar
    12     2     3   ar
    13     3     4   ar
    14     4     5   ar
    15     5     6   ar
    16     6     7   ar
    17     7     8   ar
    18     8     9   am
    19     9    10    2
    20     9    11   am
    21    11    14    1
    22    14    15   ar
    23    15    16   ar
    24    16    19    1
    25    19    20    1
    26    19    21    1
    27    19    22    1
    28    16    17   ar
    29    17    18   ar
    30     5    12   ar
    31    28    33    1
    32    33    34    1
    33    34    25    1
    34    32    27   ar
    35    12     1   ar
    36     8     4   ar
    37    18    14   ar
    38    11    13    1
    39    34    35    1
@<TRIPOS>MOLECULE
*****
 35 39 0 0 0
SMALL
GASTEIGER

@<TRIPOS>ATOM
      1 C         140.8915  140.8321  165.5757 C.ar    1  UNL1        0.1473
      2 C         141.5532  140.5998  164.2497 C.ar    1  UNL1        0.0390
      3 C         141.4339  141.6258  163.1621 C.ar    1  UNL1        0.0208
      4 C         140.6529  142.8841  163.4003 C.ar    1  UNL1        0.0683
      5 C         139.9912  143.1163  164.7263 C.ar    1  UNL1        0.0208
      6 C         139.2923  144.4424  164.6696 C.ar    1  UNL1        0.0207
      7 C         139.5221  145.0297  163.3087 C.ar    1  UNL1        0.0842
      8 N         140.3630  144.0666  162.5242 N.ar    1  UNL1       -0.2609
      9 C         140.8317  144.2532  161.1116 C.2     1  UNL1        0.3249
     10 O         141.6712  143.1981  160.4544 O.2     1  UNL1       -0.2488
     11 N         140.4608  145.4950  160.3562 N.am    1  UNL1       -0.2484
     12 C         140.1105  142.0903  165.8140 C.ar    1  UNL1        0.0390
     13 H         139.9097  146.1875  160.7875 H       1  UNL1        0.1581
     14 C         140.9295  145.6816  158.9435 C.ar    1  UNL1        0.1773
     15 C         140.0687  146.0432  157.7695 C.ar    1  UNL1        0.0734
     16 C         140.9484  146.1245  156.5573 C.ar    1  UNL1        0.1549
     17 O         142.3529  145.8131  156.9822 O.2     1  UNL1       -0.3565
     18 N         142.3412  145.5394  158.4569 N.ar    1  UNL1       -0.0620
     19 C         140.5020  146.4585  155.1648 C.3     1  UNL1        0.0539
     20 C         141.5965  145.5974  154.6074 C.3     1  UNL1        0.0076
     21 C         139.4075  147.3196  155.7222 C.3     1  UNL1        0.0076
     22 C         140.0557  146.7925  153.7723 C.3     1  UNL1        0.0076
     23 O         141.0108  139.8061  166.6634 O.3     1  UNL1       -0.4363
     24 C         144.3129  142.5720  169.9338 C.3     1  UNL1        0.0175
     25 C         142.9272  142.0171  170.0823 C.3     1  UNL1        0.0589
     26 C         142.2884  141.2801  168.9427 C.3     1  UNL1        0.0481
     27 C         140.9028  140.7252  169.0911 C.ar    1  UNL1        0.0476
     28 C         140.1559  140.9073  170.3791 C.ar    1  UNL1        0.0772
     29 N         138.7703  140.3523  170.5276 N.ar    1  UNL1       -0.2271
     30 C         138.1315  139.6153  169.3880 C.ar    1  UNL1        0.2012
     31 N         138.8783  139.4332  168.0999 N.ar    1  UNL1       -0.1893
     32 C         140.2640  139.9881  167.9514 C.ar    1  UNL1        0.2282
     33 C         140.7947  141.6443  171.5187 C.3     1  UNL1        0.1150
     34 N         142.1804  142.1992  171.3703 N.3     1  UNL1       -0.2933
     35 H         142.7482  141.7731  172.1027 H       1  UNL1        0.1236
@<TRIPOS>BOND
     1    25    24    1
     2    25    26    1
     3    26    27    1
     4    27    28   ar
     5    28    29   ar
     6    29    30   ar
     7    30    31   ar
     8    31    32   ar
     9    32    23    1
    10    23     1    1
    11     1     2   ar
    12     2     3   ar
    13     3     4   ar
    14     4     5   ar
    15     5     6   ar
    16     6     7   ar
    17     7     8   ar
    18     8     9   am
    19     9    10    2
    20     9    11   am
    21    11    14    1
    22    14    15   ar
    23    15    16   ar
    24    16    19    1
    25    19    20    1
    26    19    21    1
    27    19    22    1
    28    16    17   ar
    29    17    18   ar
    30     5    12   ar
    31    28    33    1
    32    33    34    1
    33    34    25    1
    34    32    27   ar
    35    12     1   ar
    36     8     4   ar
    37    18    14   ar
    38    11    13    1
    39    34    35    1
@<TRIPOS>MOLECULE
*****
 35 39 0 0 0
SMALL
GASTEIGER

@<TRIPOS>ATOM
      1 C         138.2633  141.6345  159.3622 C.ar    1  UNL1        0.1473
      2 C         138.3246  142.4957  160.5888 C.ar    1  UNL1        0.0390
      3 C         138.4588  141.8641  161.9427 C.ar    1  UNL1        0.0208
      4 C         138.5318  140.3713  162.0699 C.ar    1  UNL1        0.0683
      5 C         138.4705  139.5101  160.8433 C.ar    1  UNL1        0.0208
      6 C         138.5653  138.0775  161.2776 C.ar    1  UNL1        0.0207
      7 C         138.6852  138.0533  162.7726 C.ar    1  UNL1        0.0842
      8 N         138.6644  139.4709  163.2623 N.ar    1  UNL1       -0.2609
      9 C         138.7597  139.9110  164.6931 C.2     1  UNL1        0.3249
     10 O         138.7252  141.3717  165.0325 O.2     1  UNL1       -0.2488
     11 N         138.8894  138.8902  165.7847 N.am    1  UNL1       -0.2484
     12 C         138.3363  140.1417  159.4894 C.ar    1  UNL1        0.0390
     13 H         138.9120  137.9315  165.5620 H       1  UNL1        0.1581
     14 C         138.9846  139.3303  167.2155 C.ar    1  UNL1        0.1773
     15 C         140.1204  140.0940  167.8293 C.ar    1  UNL1        0.0734
     16 C         139.7985  140.3196  169.2769 C.ar    1  UNL1        0.1549
     17 O         138.4639  139.6953  169.5577 O.2     1  UNL1       -0.3565
     18 N         137.9608  139.0838  168.2838 N.ar    1  UNL1       -0.0620
     19 C         140.6601  141.0426  170.2694 C.3     1  UNL1        0.0539
     20 C         141.6031  139.8765  170.3002 C.3     1  UNL1        0.0076
     21 C         139.7170  142.2087  170.2385 C.3     1  UNL1        0.0076
     22 C         141.5215  141.7656  171.2619 C.3     1  UNL1        0.0076
     23 O         138.1291  142.2662  158.0083 O.3     1  UNL1       -0.4363
     24 C         133.3985  140.4716  156.0977 C.3     1  UNL1        0.0175
     25 C         134.8230  140.3263  155.6511 C.3     1  UNL1        0.0589
     26 C         135.9250  140.9729  156.4368 C.3     1  UNL1        0.0481
     27 C         137.3496  140.8276  155.9901 C.ar    1  UNL1        0.0476
     28 C         137.6721  140.0357  154.7577 C.ar    1  UNL1        0.0772
     29 N         139.0967  139.8904  154.3111 N.ar    1  UNL1       -0.2271
     30 C         140.1987  140.5370  155.0968 C.ar    1  UNL1        0.2012
     31 N         139.8762  141.3290  156.3292 N.ar    1  UNL1       -0.1893
     32 C         138.4517  141.4743  156.7759 C.ar    1  UNL1        0.2282
     33 C         136.5701  139.3891  153.9720 C.3     1  UNL1        0.1150
     34 N         135.1455  139.5344  154.4187 N.3     1  UNL1       -0.2933
     35 H         134.7875  138.5917  154.5724 H       1  UNL1        0.1236
@<TRIPOS>BOND
     1    25    24    1
     2    25    26    1
     3    26    27    1
     4    27    28   ar
     5    28    29   ar
     6    29    30   ar
     7    30    31   ar
     8    31    32   ar
     9    32    23    1
    10    23     1    1
    11     1     2   ar
    12     2     3   ar
    13     3     4   ar
    14     4     5   ar
    15     5     6   ar
    16     6     7   ar
    17     7     8   ar
    18     8     9   am
    19     9    10    2
    20     9    11   am
    21    11    14    1
    22    14    15   ar
    23    15    16   ar
    24    16    19    1
    25    19    20    1
    26    19    21    1
    27    19    22    1
    28    16    17   ar
    29    17    18   ar
    30     5    12   ar
    31    28    33    1
    32    33    34    1
    33    34    25    1
    34    32    27   ar
    35    12     1   ar
    36     8     4   ar
    37    18    14   ar
    38    11    13    1
    39    34    35    1
@<TRIPOS>MOLECULE
*****
 35 39 0 0 0
SMALL
GASTEIGER

@<TRIPOS>ATOM
      1 C         142.7279  138.5281  158.8972 C.ar    1  UNL1        0.1473
      2 C         143.7332  139.0396  159.8860 C.ar    1  UNL1        0.0390
      3 C         143.3414  139.2355  161.3206 C.ar    1  UNL1        0.0208
      4 C         141.9444  138.9199  161.7664 C.ar    1  UNL1        0.0683
      5 C         140.9392  138.4084  160.7776 C.ar    1  UNL1        0.0208
      6 C         139.6463  138.1847  161.5046 C.ar    1  UNL1        0.0207
      7 C         139.8525  138.5579  162.9427 C.ar    1  UNL1        0.0842
      8 N         141.2728  139.0123  163.1045 N.ar    1  UNL1       -0.2609
      9 C         141.9098  139.4775  164.3804 C.2     1  UNL1        0.3249
     10 O         143.3479  139.9038  164.3888 O.2     1  UNL1       -0.2488
     11 N         141.1086  139.5163  165.6480 N.am    1  UNL1       -0.2484
     12 C         141.3309  138.2125  159.3430 C.ar    1  UNL1        0.0390
     13 H         140.1647  139.2364  165.6425 H       1  UNL1        0.1581
     14 C         141.7455  139.9814  166.9239 C.ar    1  UNL1        0.1773
     15 C         141.5770  141.3333  167.5516 C.ar    1  UNL1        0.0734
     16 C         142.3902  141.3638  168.8118 C.ar    1  UNL1        0.1549
     17 O         143.0612  140.0308  168.9628 O.2     1  UNL1       -0.3565
     18 N         142.6628  139.1764  167.7960 N.ar    1  UNL1       -0.0620
     19 C         142.5111  142.5236  169.7552 C.3     1  UNL1        0.0539
     20 C         141.0525  142.8232  169.5738 C.3     1  UNL1        0.0076
     21 C         143.9697  142.2240  169.9366 C.3     1  UNL1        0.0076
     22 C         142.6320  143.6834  170.6987 C.3     1  UNL1        0.0076
     23 O         143.1197  138.3321  157.4626 O.3     1  UNL1       -0.4363
     24 C         144.4997  133.1216  157.9058 C.3     1  UNL1        0.0175
     25 C         143.4746  133.8610  157.0981 C.3     1  UNL1        0.0589
     26 C         143.3563  135.3513  157.2196 C.3     1  UNL1        0.0481
     27 C         142.3311  136.0906  156.4118 C.ar    1  UNL1        0.0476
     28 C         141.4243  135.3396  155.4825 C.ar    1  UNL1        0.0772
     29 N         140.3992  136.0789  154.6747 N.ar    1  UNL1       -0.2271
     30 C         140.2809  137.5693  154.7962 C.ar    1  UNL1        0.2012
     31 N         141.1878  138.3204  155.7255 N.ar    1  UNL1       -0.1893
     32 C         142.2129  137.5811  156.5333 C.ar    1  UNL1        0.2282
     33 C         141.5426  133.8493  155.3610 C.3     1  UNL1        0.1150
     34 N         142.5677  133.1099  156.1688 N.3     1  UNL1       -0.2933
     35 H         143.1671  132.6189  155.5055 H       1  UNL1        0.1236
@<TRIPOS>BOND
     1    25    24    1
     2    25    26    1
     3    26    27    1
     4    27    28   ar
     5    28    29   ar
     6    29    30   ar
     7    30    31   ar
     8    31    32   ar
     9    32    23    1
    10    23     1    1
    11     1     2   ar
    12     2     3   ar
    13     3     4   ar
    14     4     5   ar
    15     5     6   ar
    16     6     7   ar
    17     7     8   ar
    18     8     9   am
    19     9    10    2
    20     9    11   am
    21    11    14    1
    22    14    15   ar
    23    15    16   ar
    24    16    19    1
    25    19    20    1
    26    19    21    1
    27    19    22    1
    28    16    17   ar
    29    17    18   ar
    30     5    12   ar
    31    28    33    1
    32    33    34    1
    33    34    25    1
    34    32    27   ar
    35    12     1   ar
    36     8     4   ar
    37    18    14   ar
    38    11    13    1
    39    34    35    1
@<TRIPOS>MOLECULE
*****
 35 39 0 0 0
SMALL
GASTEIGER

@<TRIPOS>ATOM
      1 C         142.4388  137.9239  158.6221 C.ar    1  UNL1        0.1473
      2 C         142.9020  137.6635  160.0248 C.ar    1  UNL1        0.0390
      3 C         142.0184  138.0168  161.1843 C.ar    1  UNL1        0.0208
      4 C         140.6716  138.6305  160.9410 C.ar    1  UNL1        0.0683
      5 C         140.2083  138.8909  159.5383 C.ar    1  UNL1        0.0208
      6 C         138.8403  139.5024  159.6080 C.ar    1  UNL1        0.0207
      7 C         138.4582  139.6199  161.0537 C.ar    1  UNL1        0.0842
      8 N         139.5899  139.0810  161.8775 N.ar    1  UNL1       -0.2609
      9 C         139.6326  139.0059  163.3751 C.2     1  UNL1        0.3249
     10 O         140.8386  138.4387  164.0635 O.2     1  UNL1       -0.2488
     11 N         138.4692  139.4979  164.1842 N.am    1  UNL1       -0.2484
     12 C         141.0919  138.5376  158.3789 C.ar    1  UNL1        0.0390
     13 H         137.6777  139.8701  163.7323 H       1  UNL1        0.1581
     14 C         138.5119  139.4227  165.6817 C.ar    1  UNL1        0.1773
     15 C         139.4721  140.1519  166.5740 C.ar    1  UNL1        0.0734
     16 C         139.1555  139.7851  167.9936 C.ar    1  UNL1        0.1549
     17 O         137.9997  138.8292  167.9786 O.2     1  UNL1       -0.3565
     18 N         137.6019  138.6052  166.5497 N.ar    1  UNL1       -0.0620
     19 C         139.8694  140.2862  169.2140 C.3     1  UNL1        0.0539
     20 C         138.5740  140.2902  169.9701 C.3     1  UNL1        0.0076
     21 C         141.1649  140.2821  168.4577 C.3     1  UNL1        0.0076
     22 C         140.5834  140.7872  170.4342 C.3     1  UNL1        0.0076
     23 O         143.3224  137.5705  157.4626 O.3     1  UNL1       -0.4363
     24 C         141.6190  134.5998  153.2766 C.3     1  UNL1        0.0175
     25 C         142.0890  136.0166  153.4236 C.3     1  UNL1        0.0589
     26 C         142.5002  136.5346  154.7699 C.3     1  UNL1        0.0481
     27 C         142.9702  137.9515  154.9169 C.ar    1  UNL1        0.0476
     28 C         143.0290  138.8504  153.7175 C.ar    1  UNL1        0.0772
     29 N         143.4990  140.2672  153.8645 N.ar    1  UNL1       -0.2271
     30 C         143.9102  140.7852  155.2108 C.ar    1  UNL1        0.2012
     31 N         143.8513  139.8863  156.4102 N.ar    1  UNL1       -0.1893
     32 C         143.3813  138.4694  156.2633 C.ar    1  UNL1        0.2282
     33 C         142.6179  138.3324  152.3712 C.3     1  UNL1        0.1150
     34 N         142.1479  136.9155  152.2242 N.3     1  UNL1       -0.2933
     35 H         142.7693  136.4676  151.5507 H       1  UNL1        0.1236
@<TRIPOS>BOND
     1    25    24    1
     2    25    26    1
     3    26    27    1
     4    27    28   ar
     5    28    29   ar
     6    29    30   ar
     7    30    31   ar
     8    31    32   ar
     9    32    23    1
    10    23     1    1
    11     1     2   ar
    12     2     3   ar
    13     3     4   ar
    14     4     5   ar
    15     5     6   ar
    16     6     7   ar
    17     7     8   ar
    18     8     9   am
    19     9    10    2
    20     9    11   am
    21    11    14    1
    22    14    15   ar
    23    15    16   ar
    24    16    19    1
    25    19    20    1
    26    19    21    1
    27    19    22    1
    28    16    17   ar
    29    17    18   ar
    30     5    12   ar
    31    28    33    1
    32    33    34    1
    33    34    25    1
    34    32    27   ar
    35    12     1   ar
    36     8     4   ar
    37    18    14   ar
    38    11    13    1
    39    34    35    1
@<TRIPOS>MOLECULE
*****
 35 39 0 0 0
SMALL
GASTEIGER

@<TRIPOS>ATOM
      1 C         143.2324  142.7516  160.2355 C.ar    1  UNL1        0.1473
      2 C         142.8785  141.3908  160.7580 C.ar    1  UNL1        0.0390
      3 C         142.8797  140.2091  159.8341 C.ar    1  UNL1        0.0208
      4 C         143.2348  140.3882  158.3879 C.ar    1  UNL1        0.0683
      5 C         143.5887  141.7490  157.8654 C.ar    1  UNL1        0.0208
      6 C         143.8937  141.6189  156.4025 C.ar    1  UNL1        0.0207
      7 C         143.7283  140.1778  156.0208 C.ar    1  UNL1        0.0842
      8 N         143.3211  139.4172  157.2478 N.ar    1  UNL1       -0.2609
      9 C         143.0481  137.9441  157.3219 C.2     1  UNL1        0.3249
     10 O         142.6474  137.3201  158.6258 O.2     1  UNL1       -0.2488
     11 N         143.1757  137.0948  156.0919 N.am    1  UNL1       -0.2484
     12 C         143.5875  142.9307  158.7892 C.ar    1  UNL1        0.0390
     13 H         143.4387  137.5043  155.2361 H       1  UNL1        0.1581
     14 C         142.9027  135.6218  156.1660 C.ar    1  UNL1        0.1773
     15 C         143.8178  134.5835  156.7444 C.ar    1  UNL1        0.0734
     16 C         143.1474  133.2484  156.6105 C.ar    1  UNL1        0.1549
     17 O         141.8179  133.4615  155.9493 O.2     1  UNL1       -0.3565
     18 N         141.6667  134.9283  155.6746 N.ar    1  UNL1       -0.0620
     19 C         143.7079  131.9313  157.0591 C.3     1  UNL1        0.0539
     20 C         142.6205  131.2150  156.3146 C.3     1  UNL1        0.0076
     21 C         144.7954  132.6478  157.8036 C.3     1  UNL1        0.0076
     22 C         144.2685  130.6144  157.5077 C.3     1  UNL1        0.0076
     23 O         143.2312  143.9334  161.1594 O.3     1  UNL1       -0.4363
     24 C         142.6677  141.8513  166.1190 C.3     1  UNL1        0.0175
     25 C         141.8361  142.7734  165.2774 C.3     1  UNL1        0.0589
     26 C         142.3011  143.1601  163.9048 C.3     1  UNL1        0.0481
     27 C         141.4695  144.0822  163.0633 C.ar    1  UNL1        0.0476
     28 C         140.1729  144.6176  163.5944 C.ar    1  UNL1        0.0772
     29 N         139.3414  145.5397  162.7528 N.ar    1  UNL1       -0.2271
     30 C         139.8064  145.9264  161.3802 C.ar    1  UNL1        0.2012
     31 N         141.1030  145.3909  160.8490 N.ar    1  UNL1       -0.1893
     32 C         141.9346  144.4688  161.6905 C.ar    1  UNL1        0.2282
     33 C         139.7079  144.2309  164.9670 C.3     1  UNL1        0.1150
     34 N         140.5395  143.3088  165.8085 N.3     1  UNL1       -0.2933
     35 H         139.9550  142.5019  166.0267 H       1  UNL1        0.1236
@<TRIPOS>BOND
     1    25    24    1
     2    25    26    1
     3    26    27    1
     4    27    28   ar
     5    28    29   ar
     6    29    30   ar
     7    30    31   ar
     8    31    32   ar
     9    32    23    1
    10    23     1    1
    11     1     2   ar
    12     2     3   ar
    13     3     4   ar
    14     4     5   ar
    15     5     6   ar
    16     6     7   ar
    17     7     8   ar
    18     8     9   am
    19     9    10    2
    20     9    11   am
    21    11    14    1
    22    14    15   ar
    23    15    16   ar
    24    16    19    1
    25    19    20    1
    26    19    21    1
    27    19    22    1
    28    16    17   ar
    29    17    18   ar
    30     5    12   ar
    31    28    33    1
    32    33    34    1
    33    34    25    1
    34    32    27   ar
    35    12     1   ar
    36     8     4   ar
    37    18    14   ar
    38    11    13    1
    39    34    35    1
@<TRIPOS>MOLECULE
*****
 35 39 0 0 0
SMALL
GASTEIGER

@<TRIPOS>ATOM
      1 C         142.1589  142.3541  164.3599 C.ar    1  UNL1        0.1473
      2 C         142.3148  143.3610  163.2591 C.ar    1  UNL1        0.0390
      3 C         142.8659  142.9392  161.9293 C.ar    1  UNL1        0.0208
      4 C         143.2610  141.5105  161.7003 C.ar    1  UNL1        0.0683
      5 C         143.1051  140.5035  162.8011 C.ar    1  UNL1        0.0208
      6 C         143.5764  139.1762  162.2853 C.ar    1  UNL1        0.0207
      7 C         144.0237  139.3628  160.8657 C.ar    1  UNL1        0.0842
      8 N         143.8287  140.8054  160.5042 N.ar    1  UNL1       -0.2609
      9 C         144.1458  141.4330  159.1792 C.2     1  UNL1        0.3249
     10 O         143.8961  142.8962  158.9633 O.2     1  UNL1       -0.2488
     11 N         144.7125  140.5972  158.0699 N.am    1  UNL1       -0.2484
     12 C         142.5541  140.9253  164.1309 C.ar    1  UNL1        0.0390
     13 H         144.8764  139.6368  158.2115 H       1  UNL1        0.1581
     14 C         145.0296  141.2247  156.7449 C.ar    1  UNL1        0.1773
     15 C         146.3359  141.8512  156.3561 C.ar    1  UNL1        0.0734
     16 C         146.2097  142.3496  154.9470 C.ar    1  UNL1        0.1549
     17 O         144.8255  142.0311  154.4649 O.2     1  UNL1       -0.3565
     18 N         144.0961  141.3359  155.5760 N.ar    1  UNL1       -0.0620
     19 C         147.2799  143.0444  154.1583 C.3     1  UNL1        0.0539
     20 C         146.2967  144.1040  153.7577 C.3     1  UNL1        0.0076
     21 C         148.2631  141.9848  154.5590 C.3     1  UNL1        0.0076
     22 C         148.3500  143.7392  153.3698 C.3     1  UNL1        0.0076
     23 O         141.6079  142.7760  165.6897 O.3     1  UNL1       -0.4363
     24 C         144.7212  142.8127  170.1119 C.3     1  UNL1        0.0175
     25 C         143.5048  142.0362  169.7028 C.3     1  UNL1        0.0589
     26 C         142.8725  142.2828  168.3651 C.3     1  UNL1        0.0481
     27 C         141.6561  141.5063  167.9560 C.ar    1  UNL1        0.0476
     28 C         141.0719  140.4833  168.8844 C.ar    1  UNL1        0.0772
     29 N         139.8555  139.7068  168.4753 N.ar    1  UNL1       -0.2271
     30 C         139.2232  139.9534  167.1376 C.ar    1  UNL1        0.2012
     31 N         139.8073  140.9765  166.2091 N.ar    1  UNL1       -0.1893
     32 C         141.0238  141.7529  166.6182 C.ar    1  UNL1        0.2282
     33 C         141.7042  140.2367  170.2221 C.3     1  UNL1        0.1150
     34 N         142.9206  141.0132  170.6313 N.3     1  UNL1       -0.2933
     35 H         143.6559  140.3315  170.8184 H       1  UNL1        0.1236
@<TRIPOS>BOND
     1    25    24    1
     2    25    26    1
     3    26    27    1
     4    27    28   ar
     5    28    29   ar
     6    29    30   ar
     7    30    31   ar
     8    31    32   ar
     9    32    23    1
    10    23     1    1
    11     1     2   ar
    12     2     3   ar
    13     3     4   ar
    14     4     5   ar
    15     5     6   ar
    16     6     7   ar
    17     7     8   ar
    18     8     9   am
    19     9    10    2
    20     9    11   am
    21    11    14    1
    22    14    15   ar
    23    15    16   ar
    24    16    19    1
    25    19    20    1
    26    19    21    1
    27    19    22    1
    28    16    17   ar
    29    17    18   ar
    30     5    12   ar
    31    28    33    1
    32    33    34    1
    33    34    25    1
    34    32    27   ar
    35    12     1   ar
    36     8     4   ar
    37    18    14   ar
    38    11    13    1
    39    34    35    1
@<TRIPOS>MOLECULE
*****
 35 39 0 0 0
SMALL
GASTEIGER

@<TRIPOS>ATOM
      1 C         143.6678  141.9901  162.1276 C.ar    1  UNL1        0.1473
      2 C         143.3631  140.5340  162.3199 C.ar    1  UNL1        0.0390
      3 C         143.2054  139.6370  161.1281 C.ar    1  UNL1        0.0208
      4 C         143.3525  140.1960  159.7440 C.ar    1  UNL1        0.0683
      5 C         143.6572  141.6521  159.5517 C.ar    1  UNL1        0.0208
      6 C         143.7455  141.9164  158.0778 C.ar    1  UNL1        0.0207
      7 C         143.4954  140.6237  157.3592 C.ar    1  UNL1        0.0842
      8 N         143.2525  139.5605  158.3890 N.ar    1  UNL1       -0.2609
      9 C         142.9608  138.1154  158.1123 C.2     1  UNL1        0.3249
     10 O         142.7385  137.1639  159.2504 O.2     1  UNL1       -0.2488
     11 N         142.8914  137.6217  156.6975 N.am    1  UNL1       -0.2484
     12 C         143.8149  142.5491  160.7435 C.ar    1  UNL1        0.0390
     13 H         143.0374  138.2462  155.9505 H       1  UNL1        0.1581
     14 C         142.5998  136.1766  156.4208 C.ar    1  UNL1        0.1773
     15 C         143.4140  135.0073  156.8898 C.ar    1  UNL1        0.0734
     16 C         142.7601  133.7551  156.3854 C.ar    1  UNL1        0.1549
     17 O         141.5418  134.1504  155.6049 O.2     1  UNL1       -0.3565
     18 N         141.4426  135.6470  155.6267 N.ar    1  UNL1       -0.0620
     19 C         143.2403  132.3536  156.6204 C.3     1  UNL1        0.0539
     20 C         144.3349  132.8765  157.5026 C.3     1  UNL1        0.0076
     21 C         142.1455  131.8307  155.7382 C.3     1  UNL1        0.0076
     22 C         143.7203  130.9521  156.8554 C.3     1  UNL1        0.0076
     23 O         143.8255  142.8871  163.3195 O.3     1  UNL1       -0.4363
     24 C         139.7470  146.0811  161.7655 C.3     1  UNL1        0.0175
     25 C         140.0105  145.2503  162.9863 C.3     1  UNL1        0.0589
     26 C         141.2821  144.4626  163.0974 C.3     1  UNL1        0.0481
     27 C         141.5455  143.6317  164.3182 C.ar    1  UNL1        0.0476
     28 C         140.5373  143.5886  165.4279 C.ar    1  UNL1        0.0772
     29 N         140.8007  142.7578  166.6487 N.ar    1  UNL1       -0.2271
     30 C         142.0724  141.9701  166.7598 C.ar    1  UNL1        0.2012
     31 N         143.0807  142.0132  165.6500 N.ar    1  UNL1       -0.1893
     32 C         142.8173  142.8440  164.4292 C.ar    1  UNL1        0.2282
     33 C         139.2656  144.3763  165.3169 C.3     1  UNL1        0.1150
     34 N         139.0022  145.2072  164.0961 N.3     1  UNL1       -0.2933
     35 H         138.8745  146.1674  164.4154 H       1  UNL1        0.1236
@<TRIPOS>BOND
     1    25    24    1
     2    25    26    1
     3    26    27    1
     4    27    28   ar
     5    28    29   ar
     6    29    30   ar
     7    30    31   ar
     8    31    32   ar
     9    32    23    1
    10    23     1    1
    11     1     2   ar
    12     2     3   ar
    13     3     4   ar
    14     4     5   ar
    15     5     6   ar
    16     6     7   ar
    17     7     8   ar
    18     8     9   am
    19     9    10    2
    20     9    11   am
    21    11    14    1
    22    14    15   ar
    23    15    16   ar
    24    16    19    1
    25    19    20    1
    26    19    21    1
    27    19    22    1
    28    16    17   ar
    29    17    18   ar
    30     5    12   ar
    31    28    33    1
    32    33    34    1
    33    34    25    1
    34    32    27   ar
    35    12     1   ar
    36     8     4   ar
    37    18    14   ar
    38    11    13    1
    39    34    35    1
