@<TRIPOS>MOLECULE
*****
 32 36 0 0 0
SMALL
GASTEIGER

@<TRIPOS>ATOM
      1 C         140.6095  138.4526  161.1911 C.ar    1  UNL1       -0.0003
      2 C         142.0822  138.2326  161.0104 C.ar    1  UNL1        0.0001
      3 C         142.6665  138.1646  159.6306 C.ar    1  UNL1        0.0042
      4 C         141.7782  138.3167  158.4316 C.ar    1  UNL1        0.0497
      5 C         140.3055  138.5368  158.6123 C.ar    1  UNL1       -0.0161
      6 C         139.7212  138.6047  159.9921 C.ar    1  UNL1       -0.0041
      7 C         139.4172  138.6889  157.4132 C.3     1  UNL1        0.0480
      8 C         140.0016  138.6209  156.0334 C.3     1  UNL1        0.0984
      9 N         141.4744  138.4009  155.8527 N.am    1  UNL1       -0.2743
     10 C         142.3627  138.2488  157.0517 C.2     1  UNL1        0.2488
     11 O         143.8354  138.0287  156.8710 O.2     1  UNL1       -0.2699
     12 C         138.8561  138.6565  165.3306 C.ar    1  UNL1        0.0536
     13 C         138.4317  139.6466  164.2866 C.ar    1  UNL1        0.0045
     14 C         139.0162  139.5786  162.9069 C.ar    1  UNL1        0.0001
     15 C         140.0250  138.5206  162.5710 C.ar    1  UNL1       -0.0000
     16 C         140.4494  137.5305  163.6148 C.ar    1  UNL1        0.0001
     17 C         139.8649  137.5985  164.9947 C.ar    1  UNL1        0.0045
     18 C         140.9150  140.5926  166.2949 C.3     1  UNL1        0.0215
     19 C         140.1209  140.4574  167.5602 C.3     1  UNL1        0.0757
     20 C         140.4024  141.1571  168.8568 C.3     1  UNL1        0.0216
     21 C         139.3613  140.7309  169.8491 C.3     1  UNL1        0.0232
     22 C         138.4365  139.7678  169.1657 C.3     1  UNL1        0.0937
     23 N         138.9059  139.5987  167.7512 N.am    1  UNL1       -0.2777
     24 C         138.2717  138.7245  166.7103 C.2     1  UNL1        0.2490
     25 O         137.0530  137.9183  167.0492 O.2     1  UNL1       -0.2699
     26 C         142.0587  138.3329  154.4729 C.3     1  UNL1        0.1110
     27 C         142.1572  137.0146  153.7642 C.3     1  UNL1        0.0939
     28 N         142.3230  135.7495  154.5531 N.3     1  UNL1       -0.2712
     29 C         141.2227  134.8175  154.9662 C.3     1  UNL1        0.0722
     30 C         141.8379  133.6864  155.7358 C.3     1  UNL1        0.0188
     31 C         143.3184  133.9194  155.7982 C.3     1  UNL1        0.0188
     32 C         143.6182  135.1945  155.0673 C.3     1  UNL1        0.0722
@<TRIPOS>BOND
     1    19    18    1
     2    19    20    1
     3    20    21    1
     4    21    22    1
     5    22    23    1
     6    23    24   am
     7    24    25    2
     8    24    12    1
     9    12    13   ar
    10    13    14   ar
    11    14    15   ar
    12    15     1    1
    13     1     2   ar
    14     2     3   ar
    15     3     4   ar
    16     4     5   ar
    17     5     6   ar
    18     5     7    1
    19     7     8    1
    20     8     9    1
    21     9    26    1
    22    26    27    1
    23    27    28    1
    24    28    29    1
    25    29    30    1
    26    30    31    1
    27    31    32    1
    28     9    10   am
    29    10    11    2
    30    15    16   ar
    31    16    17   ar
    32    23    19    1
    33    17    12   ar
    34     6     1   ar
    35    32    28    1
    36    10     4    1
@<TRIPOS>MOLECULE
*****
 32 36 0 0 0
SMALL
GASTEIGER

@<TRIPOS>ATOM
      1 C         139.5247  138.9915  161.3494 C.ar    1  UNL1       -0.0003
      2 C         138.5435  139.5082  160.3393 C.ar    1  UNL1        0.0001
      3 C         138.8992  139.5121  158.8821 C.ar    1  UNL1        0.0042
      4 C         140.2360  138.9994  158.4350 C.ar    1  UNL1        0.0497
      5 C         141.2172  138.4828  159.4450 C.ar    1  UNL1       -0.0161
      6 C         140.8616  138.4788  160.9022 C.ar    1  UNL1       -0.0041
      7 C         142.5541  137.9701  158.9979 C.3     1  UNL1        0.0480
      8 C         142.9098  137.9740  157.5407 C.3     1  UNL1        0.0984
      9 N         141.9285  138.4907  156.5305 N.am    1  UNL1       -0.2743
     10 C         140.5917  139.0034  156.9777 C.2     1  UNL1        0.2488
     11 O         139.6104  139.5200  155.9676 O.2     1  UNL1       -0.2699
     12 C         138.4579  138.9796  165.7211 C.ar    1  UNL1        0.0536
     13 C         139.2438  137.8428  165.1377 C.ar    1  UNL1        0.0045
     14 C         139.5993  137.8468  163.6805 C.ar    1  UNL1        0.0001
     15 C         139.1691  138.9876  162.8066 C.ar    1  UNL1       -0.0000
     16 C         138.3833  140.1243  163.3900 C.ar    1  UNL1        0.0001
     17 C         138.0277  140.1203  164.8473 C.ar    1  UNL1        0.0045
     18 C         140.6463  140.8808  166.4380 C.3     1  UNL1        0.0215
     19 C         140.0653  140.6779  167.8059 C.3     1  UNL1        0.0757
     20 C         140.5516  141.3152  169.0737 C.3     1  UNL1        0.0216
     21 C         139.6828  140.8333  170.1976 C.3     1  UNL1        0.0232
     22 C         138.6596  139.8983  169.6243 C.3     1  UNL1        0.0937
     23 N         138.8959  139.8022  168.1462 N.am    1  UNL1       -0.2777
     24 C         138.1023  138.9756  167.1783 C.2     1  UNL1        0.2490
     25 O         136.9531  138.1450  167.6677 O.2     1  UNL1       -0.2699
     26 C         142.2842  138.4946  155.0734 C.3     1  UNL1        0.1110
     27 C         141.9199  137.3238  154.2093 C.3     1  UNL1        0.0939
     28 N         142.1576  135.9265  154.7004 N.3     1  UNL1       -0.2712
     29 C         143.4891  135.3275  155.0443 C.3     1  UNL1        0.0722
     30 C         143.2600  133.9137  155.4902 C.3     1  UNL1        0.0188
     31 C         141.7869  133.6391  155.4219 C.3     1  UNL1        0.0188
     32 C         141.1056  134.8831  154.9337 C.3     1  UNL1        0.0722
@<TRIPOS>BOND
     1    19    18    1
     2    19    20    1
     3    20    21    1
     4    21    22    1
     5    22    23    1
     6    23    24   am
     7    24    25    2
     8    24    12    1
     9    12    13   ar
    10    13    14   ar
    11    14    15   ar
    12    15     1    1
    13     1     2   ar
    14     2     3   ar
    15     3     4   ar
    16     4     5   ar
    17     5     6   ar
    18     5     7    1
    19     7     8    1
    20     8     9    1
    21     9    26    1
    22    26    27    1
    23    27    28    1
    24    28    29    1
    25    29    30    1
    26    30    31    1
    27    31    32    1
    28     9    10   am
    29    10    11    2
    30    15    16   ar
    31    16    17   ar
    32    23    19    1
    33    17    12   ar
    34     6     1   ar
    35    32    28    1
    36    10     4    1
@<TRIPOS>MOLECULE
*****
 32 36 0 0 0
SMALL
GASTEIGER

@<TRIPOS>ATOM
      1 C         141.3459  142.2611  165.7890 C.ar    1  UNL1       -0.0003
      2 C         140.8693  142.7461  167.1260 C.ar    1  UNL1        0.0001
      3 C         141.1518  141.9415  168.3600 C.ar    1  UNL1        0.0042
      4 C         141.9110  140.6519  168.2570 C.ar    1  UNL1        0.0497
      5 C         142.3876  140.1669  166.9200 C.ar    1  UNL1       -0.0161
      6 C         142.1050  140.9715  165.6860 C.ar    1  UNL1       -0.0041
      7 C         143.1467  138.8773  166.8169 C.3     1  UNL1        0.0480
      8 C         143.4292  138.0726  168.0509 C.3     1  UNL1        0.0984
      9 N         142.9526  138.5576  169.3880 N.am    1  UNL1       -0.2743
     10 C         142.1935  139.8472  169.4910 C.2     1  UNL1        0.2488
     11 O         141.7169  140.3322  170.8280 O.2     1  UNL1       -0.2699
     12 C         140.4983  144.6750  162.0869 C.ar    1  UNL1        0.0536
     13 C         141.5401  145.1378  163.0619 C.ar    1  UNL1        0.0045
     14 C         141.8226  144.3332  164.2959 C.ar    1  UNL1        0.0001
     15 C         141.0633  143.0657  164.5550 C.ar    1  UNL1       -0.0000
     16 C         140.0216  142.6029  163.5801 C.ar    1  UNL1        0.0001
     17 C         139.7391  143.4075  162.3460 C.ar    1  UNL1        0.0045
     18 C         142.5361  143.2185  160.4610 C.3     1  UNL1        0.0215
     19 C         142.0432  144.1676  159.4092 C.3     1  UNL1        0.0757
     20 C         142.5303  144.2440  157.9926 C.3     1  UNL1        0.0216
     21 C         141.7648  145.3306  157.2972 C.3     1  UNL1        0.0232
     22 C         140.8046  145.9257  158.2841 C.3     1  UNL1        0.0937
     23 N         140.9767  145.2069  159.5894 N.am    1  UNL1       -0.2777
     24 C         140.2158  145.4796  160.8530 C.2     1  UNL1        0.2490
     25 O         139.1725  146.5569  160.8826 O.2     1  UNL1       -0.2699
     26 C         143.2352  137.7530  170.6219 C.3     1  UNL1        0.1110
     27 C         144.0634  136.5057  170.5307 C.3     1  UNL1        0.0939
     28 N         144.9890  136.1363  171.6518 N.3     1  UNL1       -0.2712
     29 C         145.9184  137.0684  172.3711 C.3     1  UNL1        0.0722
     30 C         146.6515  136.2782  173.4144 C.3     1  UNL1        0.0188
     31 C         146.1751  134.8578  173.3397 C.3     1  UNL1        0.0188
     32 C         145.1476  134.7701  172.2504 C.3     1  UNL1        0.0722
@<TRIPOS>BOND
     1    19    18    1
     2    19    20    1
     3    20    21    1
     4    21    22    1
     5    22    23    1
     6    23    24   am
     7    24    25    2
     8    24    12    1
     9    12    13   ar
    10    13    14   ar
    11    14    15   ar
    12    15     1    1
    13     1     2   ar
    14     2     3   ar
    15     3     4   ar
    16     4     5   ar
    17     5     6   ar
    18     5     7    1
    19     7     8    1
    20     8     9    1
    21     9    26    1
    22    26    27    1
    23    27    28    1
    24    28    29    1
    25    29    30    1
    26    30    31    1
    27    31    32    1
    28     9    10   am
    29    10    11    2
    30    15    16   ar
    31    16    17   ar
    32    23    19    1
    33    17    12   ar
    34     6     1   ar
    35    32    28    1
    36    10     4    1
@<TRIPOS>MOLECULE
*****
 32 36 0 0 0
SMALL
GASTEIGER

@<TRIPOS>ATOM
      1 C         140.1539  139.2400  162.3582 C.ar    1  UNL1       -0.0003
      2 C         138.9316  139.4885  161.5250 C.ar    1  UNL1        0.0001
      3 C         138.9548  139.1966  160.0538 C.ar    1  UNL1        0.0042
      4 C         140.2002  138.6563  159.4159 C.ar    1  UNL1        0.0497
      5 C         141.4225  138.4078  160.2491 C.ar    1  UNL1       -0.0161
      6 C         141.3993  138.6997  161.7202 C.ar    1  UNL1       -0.0041
      7 C         142.6679  137.8675  159.6112 C.3     1  UNL1        0.0480
      8 C         142.6911  137.5756  158.1401 C.3     1  UNL1        0.0984
      9 N         141.4687  137.8241  157.3068 N.am    1  UNL1       -0.2743
     10 C         140.2233  138.3644  157.9447 C.2     1  UNL1        0.2488
     11 O         139.0010  138.6128  157.1115 O.2     1  UNL1       -0.2699
     12 C         140.0845  140.1157  166.7717 C.ar    1  UNL1        0.0536
     13 C         139.3089  140.9809  165.8230 C.ar    1  UNL1        0.0045
     14 C         139.3320  140.6890  164.3519 C.ar    1  UNL1        0.0001
     15 C         140.1308  139.5319  163.8294 C.ar    1  UNL1       -0.0000
     16 C         140.9063  138.6666  164.7779 C.ar    1  UNL1        0.0001
     17 C         140.8832  138.9585  166.2491 C.ar    1  UNL1        0.0045
     18 C         142.6352  141.6659  166.6801 C.3     1  UNL1        0.0215
     19 C         142.3454  141.7928  168.1464 C.3     1  UNL1        0.0757
     20 C         143.1879  142.5203  169.1518 C.3     1  UNL1        0.0216
     21 C         142.5255  142.3916  170.4915 C.3     1  UNL1        0.0232
     22 C         141.2737  141.5844  170.3140 C.3     1  UNL1        0.0937
     23 N         141.1624  141.2144  168.8647 N.am    1  UNL1       -0.2777
     24 C         140.0614  140.4076  168.2428 C.2     1  UNL1        0.2490
     25 O         138.9372  139.8927  169.0920 O.2     1  UNL1       -0.2699
     26 C         141.4919  137.5322  155.8357 C.3     1  UNL1        0.1110
     27 C         140.9901  136.2143  155.3245 C.3     1  UNL1        0.0939
     28 N         141.8424  134.9865  155.4525 N.3     1  UNL1       -0.2712
     29 C         143.3188  134.9618  155.7163 C.3     1  UNL1        0.0722
     30 C         143.7568  133.5280  155.7660 C.3     1  UNL1        0.0188
     31 C         142.5511  132.6666  155.5329 C.3     1  UNL1        0.0188
     32 C         141.3679  133.5681  155.3392 C.3     1  UNL1        0.0722
@<TRIPOS>BOND
     1    19    18    1
     2    19    20    1
     3    20    21    1
     4    21    22    1
     5    22    23    1
     6    23    24   am
     7    24    25    2
     8    24    12    1
     9    12    13   ar
    10    13    14   ar
    11    14    15   ar
    12    15     1    1
    13     1     2   ar
    14     2     3   ar
    15     3     4   ar
    16     4     5   ar
    17     5     6   ar
    18     5     7    1
    19     7     8    1
    20     8     9    1
    21     9    26    1
    22    26    27    1
    23    27    28    1
    24    28    29    1
    25    29    30    1
    26    30    31    1
    27    31    32    1
    28     9    10   am
    29    10    11    2
    30    15    16   ar
    31    16    17   ar
    32    23    19    1
    33    17    12   ar
    34     6     1   ar
    35    32    28    1
    36    10     4    1
@<TRIPOS>MOLECULE
*****
 32 36 0 0 0
SMALL
GASTEIGER

@<TRIPOS>ATOM
      1 C         142.5404  140.0874  162.4341 C.ar    1  UNL1       -0.0003
      2 C         143.8112  140.0069  161.6413 C.ar    1  UNL1        0.0001
      3 C         143.7789  139.5319  160.2190 C.ar    1  UNL1        0.0042
      4 C         142.4759  139.1374  159.5893 C.ar    1  UNL1        0.0497
      5 C         141.2051  139.2178  160.3821 C.ar    1  UNL1       -0.0161
      6 C         141.2373  139.6929  161.8045 C.ar    1  UNL1       -0.0041
      7 C         139.9020  138.8233  159.7525 C.3     1  UNL1        0.0480
      8 C         139.8698  138.3483  158.3301 C.3     1  UNL1        0.0984
      9 N         141.1407  138.2678  157.5372 N.am    1  UNL1       -0.2743
     10 C         142.4437  138.6623  158.1668 C.2     1  UNL1        0.2488
     11 O         143.7145  138.5818  157.3741 O.2     1  UNL1       -0.2699
     12 C         142.6369  141.5126  166.7015 C.ar    1  UNL1        0.0536
     13 C         142.1723  142.4344  165.6131 C.ar    1  UNL1        0.0045
     14 C         142.1401  141.9594  164.1907 C.ar    1  UNL1        0.0001
     15 C         142.5726  140.5625  163.8566 C.ar    1  UNL1       -0.0000
     16 C         143.0372  139.6406  164.9448 C.ar    1  UNL1        0.0001
     17 C         143.0694  140.1157  166.3673 C.ar    1  UNL1        0.0045
     18 C         139.9142  140.4433  167.3022 C.3     1  UNL1        0.0215
     19 C         140.2309  141.0255  168.6478 C.3     1  UNL1        0.0757
     20 C         139.3369  141.0002  169.8520 C.3     1  UNL1        0.0216
     21 C         140.0507  141.6944  170.9739 C.3     1  UNL1        0.0232
     22 C         141.3858  142.1488  170.4630 C.3     1  UNL1        0.0937
     23 N         141.4972  141.7354  169.0255 N.am    1  UNL1       -0.2777
     24 C         142.6691  141.9876  168.1238 C.2     1  UNL1        0.2490
     25 O         143.8732  142.7149  168.6446 O.2     1  UNL1       -0.2699
     26 C         141.1084  137.7927  156.1148 C.3     1  UNL1        0.1110
     27 C         140.6570  136.3973  155.8002 C.3     1  UNL1        0.0939
     28 N         141.6293  135.2580  155.8823 N.3     1  UNL1       -0.2712
     29 C         142.9051  135.2430  156.6711 C.3     1  UNL1        0.0722
     30 C         143.5608  133.9094  156.4664 C.3     1  UNL1        0.0188
     31 C         142.6903  133.1004  155.5511 C.3     1  UNL1        0.0188
     32 C         141.4965  133.9339  155.1902 C.3     1  UNL1        0.0722
@<TRIPOS>BOND
     1    19    18    1
     2    19    20    1
     3    20    21    1
     4    21    22    1
     5    22    23    1
     6    23    24   am
     7    24    25    2
     8    24    12    1
     9    12    13   ar
    10    13    14   ar
    11    14    15   ar
    12    15     1    1
    13     1     2   ar
    14     2     3   ar
    15     3     4   ar
    16     4     5   ar
    17     5     6   ar
    18     5     7    1
    19     7     8    1
    20     8     9    1
    21     9    26    1
    22    26    27    1
    23    27    28    1
    24    28    29    1
    25    29    30    1
    26    30    31    1
    27    31    32    1
    28     9    10   am
    29    10    11    2
    30    15    16   ar
    31    16    17   ar
    32    23    19    1
    33    17    12   ar
    34     6     1   ar
    35    32    28    1
    36    10     4    1
@<TRIPOS>MOLECULE
*****
 32 36 0 0 0
SMALL
GASTEIGER

@<TRIPOS>ATOM
      1 C         141.3740  139.1934  162.1267 C.ar    1  UNL1       -0.0003
      2 C         140.0930  138.5806  161.6436 C.ar    1  UNL1        0.0001
      3 C         139.8740  138.3595  160.1763 C.ar    1  UNL1        0.0042
      4 C         140.9361  138.7512  159.1921 C.ar    1  UNL1        0.0497
      5 C         142.2171  139.3640  159.6752 C.ar    1  UNL1       -0.0161
      6 C         142.4361  139.5851  161.1425 C.ar    1  UNL1       -0.0041
      7 C         143.2791  139.7557  158.6910 C.3     1  UNL1        0.0480
      8 C         143.0601  139.5346  157.2236 C.3     1  UNL1        0.0984
      9 N         141.7790  138.9217  156.7405 N.am    1  UNL1       -0.2743
     10 C         140.7170  138.5300  157.7247 C.2     1  UNL1        0.2488
     11 O         139.4360  137.9172  157.2416 O.2     1  UNL1       -0.2699
     12 C         142.0312  139.8569  166.5289 C.ar    1  UNL1        0.0536
     13 C         143.0342  140.3648  165.5358 C.ar    1  UNL1        0.0045
     14 C         142.8152  140.1436  164.0685 C.ar    1  UNL1        0.0001
     15 C         141.5931  139.4146  163.5941 C.ar    1  UNL1       -0.0000
     16 C         140.5901  138.9067  164.5871 C.ar    1  UNL1        0.0001
     17 C         140.8091  139.1279  166.0545 C.ar    1  UNL1        0.0045
     18 C         140.4573  142.3945  166.5578 C.3     1  UNL1        0.0215
     19 C         140.8388  142.3480  168.0077 C.3     1  UNL1        0.0757
     20 C         140.4632  143.3582  169.0510 C.3     1  UNL1        0.0216
     21 C         141.0553  142.9177  170.3570 C.3     1  UNL1        0.0232
     22 C         141.7968  141.6354  170.1208 C.3     1  UNL1        0.0937
     23 N         141.6630  141.2833  168.6688 N.am    1  UNL1       -0.2777
     24 C         142.2503  140.0781  167.9962 C.2     1  UNL1        0.2490
     25 O         143.0566  139.0940  168.7908 O.2     1  UNL1       -0.2699
     26 C         141.5601  138.7006  155.2731 C.3     1  UNL1        0.1110
     27 C         142.3743  137.6767  154.5392 C.3     1  UNL1        0.0939
     28 N         142.6462  136.3427  155.1690 N.3     1  UNL1       -0.2712
     29 C         141.6302  135.2736  155.4428 C.3     1  UNL1        0.0722
     30 C         142.3378  134.1137  156.0786 C.3     1  UNL1        0.0188
     31 C         143.7910  134.4661  156.1978 C.3     1  UNL1        0.0188
     32 C         143.9815  135.8437  155.6357 C.3     1  UNL1        0.0722
@<TRIPOS>BOND
     1    19    18    1
     2    19    20    1
     3    20    21    1
     4    21    22    1
     5    22    23    1
     6    23    24   am
     7    24    25    2
     8    24    12    1
     9    12    13   ar
    10    13    14   ar
    11    14    15   ar
    12    15     1    1
    13     1     2   ar
    14     2     3   ar
    15     3     4   ar
    16     4     5   ar
    17     5     6   ar
    18     5     7    1
    19     7     8    1
    20     8     9    1
    21     9    26    1
    22    26    27    1
    23    27    28    1
    24    28    29    1
    25    29    30    1
    26    30    31    1
    27    31    32    1
    28     9    10   am
    29    10    11    2
    30    15    16   ar
    31    16    17   ar
    32    23    19    1
    33    17    12   ar
    34     6     1   ar
    35    32    28    1
    36    10     4    1
@<TRIPOS>MOLECULE
*****
 32 36 0 0 0
SMALL
GASTEIGER

@<TRIPOS>ATOM
      1 C         142.6081  142.0195  162.1485 C.ar    1  UNL1       -0.0003
      2 C         143.4995  141.4389  161.0911 C.ar    1  UNL1        0.0001
      3 C         143.5310  142.0466  159.7201 C.ar    1  UNL1        0.0042
      4 C         142.6711  143.2350  159.4065 C.ar    1  UNL1        0.0497
      5 C         141.7797  143.8156  160.4639 C.ar    1  UNL1       -0.0161
      6 C         141.7482  143.2079  161.8349 C.ar    1  UNL1       -0.0041
      7 C         140.9198  145.0040  160.1503 C.3     1  UNL1        0.0480
      8 C         140.9513  145.6117  158.7793 C.3     1  UNL1        0.0984
      9 N         141.8427  145.0310  157.7218 N.am    1  UNL1       -0.2743
     10 C         142.7026  143.8427  158.0354 C.2     1  UNL1        0.2488
     11 O         143.5940  143.2620  156.9780 O.2     1  UNL1       -0.2699
     12 C         142.5134  140.1964  166.2616 C.ar    1  UNL1        0.0536
     13 C         141.7318  139.5697  165.1452 C.ar    1  UNL1        0.0045
     14 C         141.7633  140.1774  163.7742 C.ar    1  UNL1        0.0001
     15 C         142.5765  141.4118  163.5195 C.ar    1  UNL1       -0.0000
     16 C         143.3582  142.0386  164.6359 C.ar    1  UNL1        0.0001
     17 C         143.3266  141.4309  166.0069 C.ar    1  UNL1        0.0045
     18 C         140.3019  141.9762  167.1884 C.3     1  UNL1        0.0215
     19 C         140.5019  141.1882  168.4490 C.3     1  UNL1        0.0757
     20 C         139.7351  141.3594  169.7267 C.3     1  UNL1        0.0216
     21 C         140.2633  140.3677  170.7206 C.3     1  UNL1        0.0232
     22 C         141.3565  139.5838  170.0571 C.3     1  UNL1        0.0937
     23 N         141.5040  140.0909  168.6532 N.am    1  UNL1       -0.2777
     24 C         142.4819  139.5887  167.6326 C.2     1  UNL1        0.2490
     25 O         143.4282  138.4789  167.9830 O.2     1  UNL1       -0.2699
     26 C         141.8742  145.6387  156.3508 C.3     1  UNL1        0.1110
     27 C         140.6070  145.7694  155.5591 C.3     1  UNL1        0.0939
     28 N         140.0216  147.1258  155.2990 N.3     1  UNL1       -0.2712
     29 C         139.0507  147.8512  156.1829 C.3     1  UNL1        0.0722
     30 C         138.7333  149.1687  155.5396 C.3     1  UNL1        0.0188
     31 C         139.5081  149.2574  154.2583 C.3     1  UNL1        0.0188
     32 C         140.3043  147.9949  154.1096 C.3     1  UNL1        0.0722
@<TRIPOS>BOND
     1    19    18    1
     2    19    20    1
     3    20    21    1
     4    21    22    1
     5    22    23    1
     6    23    24   am
     7    24    25    2
     8    24    12    1
     9    12    13   ar
    10    13    14   ar
    11    14    15   ar
    12    15     1    1
    13     1     2   ar
    14     2     3   ar
    15     3     4   ar
    16     4     5   ar
    17     5     6   ar
    18     5     7    1
    19     7     8    1
    20     8     9    1
    21     9    26    1
    22    26    27    1
    23    27    28    1
    24    28    29    1
    25    29    30    1
    26    30    31    1
    27    31    32    1
    28     9    10   am
    29    10    11    2
    30    15    16   ar
    31    16    17   ar
    32    23    19    1
    33    17    12   ar
    34     6     1   ar
    35    32    28    1
    36    10     4    1
@<TRIPOS>MOLECULE
*****
 32 36 0 0 0
SMALL
GASTEIGER

@<TRIPOS>ATOM
      1 C         141.2305  139.4331  162.0680 C.ar    1  UNL1       -0.0003
      2 C         142.6629  139.7183  161.7263 C.ar    1  UNL1        0.0001
      3 C         143.1414  139.5662  160.3129 C.ar    1  UNL1        0.0042
      4 C         142.1874  139.1290  159.2411 C.ar    1  UNL1        0.0497
      5 C         140.7550  138.8438  159.5827 C.ar    1  UNL1       -0.0161
      6 C         140.2765  138.9958  160.9962 C.ar    1  UNL1       -0.0041
      7 C         139.8010  138.4065  158.5110 C.3     1  UNL1        0.0480
      8 C         140.2794  138.2544  157.0975 C.3     1  UNL1        0.0984
      9 N         141.7119  138.5396  156.7558 N.am    1  UNL1       -0.2743
     10 C         142.6659  138.9769  157.8275 C.2     1  UNL1        0.2488
     11 O         144.0983  139.2621  157.4859 O.2     1  UNL1       -0.2699
     12 C         139.7950  139.8893  166.3085 C.ar    1  UNL1        0.0536
     13 C         141.0665  139.1464  166.0229 C.ar    1  UNL1        0.0045
     14 C         141.5449  138.9944  164.6094 C.ar    1  UNL1        0.0001
     15 C         140.7520  139.5852  163.4815 C.ar    1  UNL1       -0.0000
     16 C         139.4806  140.3281  163.7671 C.ar    1  UNL1        0.0001
     17 C         139.0021  140.4802  165.1806 C.ar    1  UNL1        0.0045
     18 C         141.4839  142.3017  166.8038 C.3     1  UNL1        0.0215
     19 C         140.8335  142.1999  168.1516 C.3     1  UNL1        0.0757
     20 C         141.0651  143.1192  169.3140 C.3     1  UNL1        0.0216
     21 C         140.2120  142.6484  170.4545 C.3     1  UNL1        0.0232
     22 C         139.4532  141.4381  169.9968 C.3     1  UNL1        0.0937
     23 N         139.8373  141.1610  168.5736 N.am    1  UNL1       -0.2777
     24 C         139.3166  140.0414  167.7219 C.2     1  UNL1        0.2490
     25 O         138.3174  139.0739  168.2837 O.2     1  UNL1       -0.2699
     26 C         142.1904  138.3875  155.3423 C.3     1  UNL1        0.1110
     27 C         141.9482  137.1054  154.6024 C.3     1  UNL1        0.0939
     28 N         142.5731  135.8305  155.0866 N.3     1  UNL1       -0.2712
     29 C         142.5438  134.5093  154.3769 C.3     1  UNL1        0.0722
     30 C         143.2895  133.5152  155.2172 C.3     1  UNL1        0.0188
     31 C         143.7795  134.2221  156.4461 C.3     1  UNL1        0.0188
     32 C         143.3367  135.6530  156.3654 C.3     1  UNL1        0.0722
@<TRIPOS>BOND
     1    19    18    1
     2    19    20    1
     3    20    21    1
     4    21    22    1
     5    22    23    1
     6    23    24   am
     7    24    25    2
     8    24    12    1
     9    12    13   ar
    10    13    14   ar
    11    14    15   ar
    12    15     1    1
    13     1     2   ar
    14     2     3   ar
    15     3     4   ar
    16     4     5   ar
    17     5     6   ar
    18     5     7    1
    19     7     8    1
    20     8     9    1
    21     9    26    1
    22    26    27    1
    23    27    28    1
    24    28    29    1
    25    29    30    1
    26    30    31    1
    27    31    32    1
    28     9    10   am
    29    10    11    2
    30    15    16   ar
    31    16    17   ar
    32    23    19    1
    33    17    12   ar
    34     6     1   ar
    35    32    28    1
    36    10     4    1
@<TRIPOS>MOLECULE
*****
 32 36 0 0 0
SMALL
GASTEIGER

@<TRIPOS>ATOM
      1 C         142.3357  139.2034  162.1457 C.ar    1  UNL1       -0.0003
      2 C         143.6287  139.2839  161.3897 C.ar    1  UNL1        0.0001
      3 C         143.6431  139.0761  159.9043 C.ar    1  UNL1        0.0042
      4 C         142.3645  138.7879  159.1748 C.ar    1  UNL1        0.0497
      5 C         141.0715  138.7074  159.9308 C.ar    1  UNL1       -0.0161
      6 C         141.0571  138.9151  161.4163 C.ar    1  UNL1       -0.0041
      7 C         139.7928  138.4191  159.2014 C.3     1  UNL1        0.0480
      8 C         139.8072  138.2113  157.7160 C.3     1  UNL1        0.0984
      9 N         141.1003  138.2918  156.9599 N.am    1  UNL1       -0.2743
     10 C         142.3789  138.5801  157.6893 C.2     1  UNL1        0.2488
     11 O         143.6719  138.6606  156.9333 O.2     1  UNL1       -0.2699
     12 C         142.2924  139.8267  166.6022 C.ar    1  UNL1        0.0536
     13 C         143.3944  140.4168  165.7730 C.ar    1  UNL1        0.0045
     14 C         143.4088  140.2090  164.2875 C.ar    1  UNL1        0.0001
     15 C         142.3212  139.4112  163.6312 C.ar    1  UNL1       -0.0000
     16 C         141.2193  138.8211  164.4604 C.ar    1  UNL1        0.0001
     17 C         141.2049  139.0289  165.9459 C.ar    1  UNL1        0.0045
     18 C         140.7363  142.3679  166.4059 C.3     1  UNL1        0.0215
     19 C         140.8848  142.3078  167.8973 C.3     1  UNL1        0.0757
     20 C         140.3507  143.3097  168.8776 C.3     1  UNL1        0.0216
     21 C         140.7293  142.8564  170.2565 C.3     1  UNL1        0.0232
     22 C         141.4974  141.5743  170.1283 C.3     1  UNL1        0.0937
     23 N         141.5935  141.2352  168.6703 N.am    1  UNL1       -0.2777
     24 C         142.2780  140.0345  168.0876 C.2     1  UNL1        0.2490
     25 O         142.9481  139.0416  168.9904 O.2     1  UNL1       -0.2699
     26 C         141.1147  138.0841  155.4744 C.3     1  UNL1        0.1110
     27 C         140.4493  136.8787  154.8792 C.3     1  UNL1        0.0939
     28 N         139.1911  137.0356  154.0777 N.3     1  UNL1       -0.2712
     29 C         138.9931  136.6056  152.6544 C.3     1  UNL1        0.0722
     30 C         137.5897  136.9544  152.2558 C.3     1  UNL1        0.0188
     31 C         136.9204  137.6000  153.4328 C.3     1  UNL1        0.0188
     32 C         137.9102  137.6502  154.5588 C.3     1  UNL1        0.0722
@<TRIPOS>BOND
     1    19    18    1
     2    19    20    1
     3    20    21    1
     4    21    22    1
     5    22    23    1
     6    23    24   am
     7    24    25    2
     8    24    12    1
     9    12    13   ar
    10    13    14   ar
    11    14    15   ar
    12    15     1    1
    13     1     2   ar
    14     2     3   ar
    15     3     4   ar
    16     4     5   ar
    17     5     6   ar
    18     5     7    1
    19     7     8    1
    20     8     9    1
    21     9    26    1
    22    26    27    1
    23    27    28    1
    24    28    29    1
    25    29    30    1
    26    30    31    1
    27    31    32    1
    28     9    10   am
    29    10    11    2
    30    15    16   ar
    31    16    17   ar
    32    23    19    1
    33    17    12   ar
    34     6     1   ar
    35    32    28    1
    36    10     4    1
