@<TRIPOS>MOLECULE
*****
 41 44 0 0 0
SMALL
GASTEIGER

@<TRIPOS>ATOM
      1 C         144.4835  142.3220  159.0616 C.3     1  UNL1        0.0317
      2 C         144.2557  141.9917  160.5070 C.ar    1  UNL1       -0.0141
      3 C         144.6635  142.9659  161.5722 C.ar    1  UNL1       -0.0024
      4 C         144.4357  142.6358  163.0175 C.ar    1  UNL1        0.0144
      5 C         143.8002  141.3313  163.3977 C.ar    1  UNL1        0.0511
      6 C         143.3925  140.3571  162.3325 C.ar    1  UNL1        0.0226
      7 C         143.6203  140.6873  160.8872 C.ar    1  UNL1        0.0393
      8 N         143.5724  141.0010  164.8431 N.am    1  UNL1       -0.2804
      9 C         142.2972  141.4158  165.5152 C.2     1  UNL1        0.2495
     10 O         141.2497  142.1608  164.7420 O.2     1  UNL1       -0.2698
     11 H         144.2598  140.5120  165.3506 H       1  UNL1        0.1552
     12 C         142.0694  141.0855  166.9606 C.ar    1  UNL1        0.0536
     13 C         142.6712  139.8445  167.5502 C.ar    1  UNL1        0.0045
     14 C         142.4434  139.5143  168.9956 C.ar    1  UNL1        0.0001
     15 C         141.6137  140.4250  169.8513 C.ar    1  UNL1        0.0039
     16 C         141.0119  141.6660  169.2617 C.ar    1  UNL1        0.0716
     17 C         141.2397  141.9962  167.8163 C.ar    1  UNL1        0.0084
     18 C         140.1823  142.5768  170.1173 C.3     1  UNL1        0.4186
     19 F         139.3527  143.4877  170.9729 F       1  UNL1       -0.1659
     20 F         141.2745  143.6044  170.0825 F       1  UNL1       -0.1659
     21 F         139.0900  141.5493  170.1522 F       1  UNL1       -0.1659
     22 C         143.2125  139.7131  159.8219 C.1     1  UNL1       -0.0585
     23 C         142.8047  138.7390  158.7567 C.1     1  UNL1       -0.0386
     24 C         142.3970  137.7648  157.6914 C.ar    1  UNL1        0.1481
     25 N         143.1998  136.5897  157.2173 N.ar    1  UNL1       -0.1595
     26 N         142.4138  135.8934  156.1461 N.ar    1  UNL1       -0.2333
     27 C         141.1253  136.6380  155.9583 C.ar    1  UNL1        0.1659
     28 N         139.9602  136.4124  155.0410 N.ar    1  UNL1       -0.2050
     29 C         138.7847  137.3433  155.0787 C.ar    1  UNL1        0.2014
     30 N         138.7743  138.4999  156.0338 N.ar    1  UNL1       -0.2093
     31 C         139.9395  138.7256  156.9511 C.ar    1  UNL1        0.1322
     32 N         139.9291  139.8822  157.9061 N.pl3   1  UNL1       -0.3424
     33 C         141.1150  137.7946  156.9133 C.ar    1  UNL1        0.0938
     34 H         139.1575  140.4932  157.9309 H       1  UNL1        0.1437
     35 H         140.6938  140.0303  158.5082 H       1  UNL1        0.1437
     36 C         142.8413  134.6675  155.3947 C.3     1  UNL1        0.1316
     37 C         142.3822  133.3127  155.8465 C.3     1  UNL1        0.0538
     38 C         141.2716  132.6157  155.1180 C.3     1  UNL1        0.0046
     39 C         143.0337  132.6551  157.0268 C.3     1  UNL1        0.1391
     40 O         143.2938  133.4438  158.2759 O.3     1  UNL1       -0.3819
     41 H         143.9502  134.1338  158.0918 H       1  UNL1        0.2104
@<TRIPOS>BOND
     1     1     2    1
     2     2     3   ar
     3     3     4   ar
     4     4     5   ar
     5     5     8    1
     6     8     9   am
     7     9    10    2
     8     9    12    1
     9    12    13   ar
    10    13    14   ar
    11    14    15   ar
    12    15    16   ar
    13    16    18    1
    14    18    19    1
    15    18    20    1
    16    18    21    1
    17    16    17   ar
    18     5     6   ar
    19     6     7   ar
    20     7    22    1
    21    22    23    3
    22    23    24    1
    23    24    25   ar
    24    25    26   ar
    25    26    36    1
    26    36    37    1
    27    37    38    1
    28    37    39    1
    29    39    40    1
    30    26    27   ar
    31    27    28   ar
    32    28    29   ar
    33    29    30   ar
    34    30    31   ar
    35    31    32    1
    36    31    33   ar
    37     7     2   ar
    38    33    24   ar
    39    17    12   ar
    40    33    27   ar
    41     8    11    1
    42    40    41    1
    43    32    34    1
    44    32    35    1
@<TRIPOS>MOLECULE
*****
 41 44 0 0 0
SMALL
GASTEIGER

@<TRIPOS>ATOM
      1 C         138.4325  141.4154  156.4875 C.3     1  UNL1        0.0317
      2 C         138.9731  140.0332  156.2700 C.ar    1  UNL1       -0.0141
      3 C         139.2442  139.5443  154.8781 C.ar    1  UNL1       -0.0024
      4 C         139.7848  138.1621  154.6605 C.ar    1  UNL1        0.0144
      5 C         140.0543  137.2687  155.8350 C.ar    1  UNL1        0.0511
      6 C         139.7832  137.7576  157.2269 C.ar    1  UNL1        0.0226
      7 C         139.2426  139.1398  157.4444 C.ar    1  UNL1        0.0393
      8 N         140.5949  135.8865  155.6175 N.am    1  UNL1       -0.2804
      9 C         142.0585  135.6158  155.8036 C.2     1  UNL1        0.2495
     10 O         142.9815  136.7272  156.2072 O.2     1  UNL1       -0.2698
     11 H         139.9891  135.1571  155.3527 H       1  UNL1        0.1552
     12 C         142.5991  134.2336  155.5861 C.ar    1  UNL1        0.0536
     13 C         142.4418  133.5682  154.2511 C.ar    1  UNL1        0.0045
     14 C         142.9824  132.1860  154.0336 C.ar    1  UNL1        0.0001
     15 C         143.6803  131.4691  155.1513 C.ar    1  UNL1        0.0039
     16 C         143.8376  132.1345  156.4864 C.ar    1  UNL1        0.0716
     17 C         143.2970  133.5168  156.7038 C.ar    1  UNL1        0.0084
     18 C         144.5355  131.4178  157.6040 C.3     1  UNL1        0.4186
     19 F         145.2335  130.7012  158.7217 F       1  UNL1       -0.1659
     20 F         145.7272  132.3128  157.4338 F       1  UNL1       -0.1659
     21 F         143.3439  130.5228  157.7743 F       1  UNL1       -0.1659
     22 C         138.9715  139.6287  158.8363 C.1     1  UNL1       -0.0585
     23 C         138.7004  140.1176  160.2283 C.1     1  UNL1       -0.0386
     24 C         138.4293  140.6065  161.6203 C.ar    1  UNL1        0.1481
     25 N         138.0292  142.0006  162.0028 N.ar    1  UNL1       -0.1595
     26 N         137.8633  142.0428  163.4930 N.ar    1  UNL1       -0.2333
     27 C         138.1609  140.6747  164.0314 C.ar    1  UNL1        0.1659
     28 N         138.1585  140.1227  165.4261 N.ar    1  UNL1       -0.2050
     29 C         138.5059  138.6829  165.6634 C.ar    1  UNL1        0.2014
     30 N         138.8556  137.7952  164.5059 N.ar    1  UNL1       -0.2093
     31 C         138.8580  138.3473  163.1113 C.ar    1  UNL1        0.1322
     32 N         139.2078  137.4596  161.9538 N.pl3   1  UNL1       -0.3424
     33 C         138.5106  139.7870  162.8740 C.ar    1  UNL1        0.0938
     34 H         139.4358  136.5146  162.1096 H       1  UNL1        0.1437
     35 H         139.2094  137.8219  161.0384 H       1  UNL1        0.1437
     36 C         137.4691  143.2424  164.3026 C.3     1  UNL1        0.1316
     37 C         138.4387  144.3713  164.4917 C.3     1  UNL1        0.0538
     38 C         138.5346  145.0632  165.8191 C.3     1  UNL1        0.0046
     39 C         139.3124  144.8081  163.3534 C.3     1  UNL1        0.1391
     40 O         138.7023  145.1387  162.0236 O.3     1  UNL1       -0.3819
     41 H         138.3189  144.3367  161.6354 H       1  UNL1        0.2104
@<TRIPOS>BOND
     1     1     2    1
     2     2     3   ar
     3     3     4   ar
     4     4     5   ar
     5     5     8    1
     6     8     9   am
     7     9    10    2
     8     9    12    1
     9    12    13   ar
    10    13    14   ar
    11    14    15   ar
    12    15    16   ar
    13    16    18    1
    14    18    19    1
    15    18    20    1
    16    18    21    1
    17    16    17   ar
    18     5     6   ar
    19     6     7   ar
    20     7    22    1
    21    22    23    3
    22    23    24    1
    23    24    25   ar
    24    25    26   ar
    25    26    36    1
    26    36    37    1
    27    37    38    1
    28    37    39    1
    29    39    40    1
    30    26    27   ar
    31    27    28   ar
    32    28    29   ar
    33    29    30   ar
    34    30    31   ar
    35    31    32    1
    36    31    33   ar
    37     7     2   ar
    38    33    24   ar
    39    17    12   ar
    40    33    27   ar
    41     8    11    1
    42    40    41    1
    43    32    34    1
    44    32    35    1
@<TRIPOS>MOLECULE
*****
 41 44 0 0 0
SMALL
GASTEIGER

@<TRIPOS>ATOM
      1 C         138.2360  141.6034  157.5813 C.3     1  UNL1        0.0317
      2 C         138.8015  140.2612  157.2226 C.ar    1  UNL1       -0.0141
      3 C         138.7520  139.7818  155.8021 C.ar    1  UNL1       -0.0024
      4 C         139.3175  138.4397  155.4433 C.ar    1  UNL1        0.0144
      5 C         139.9326  137.5768  156.5050 C.ar    1  UNL1        0.0511
      6 C         139.9822  138.0562  157.9255 C.ar    1  UNL1        0.0226
      7 C         139.4167  139.3984  158.2842 C.ar    1  UNL1        0.0393
      8 N         140.4982  136.2346  156.1463 N.am    1  UNL1       -0.2804
      9 C         141.9838  136.0290  156.1218 C.2     1  UNL1        0.2495
     10 O         142.9039  137.1656  156.4561 O.2     1  UNL1       -0.2698
     11 H         139.8943  135.4887  155.9269 H       1  UNL1        0.1552
     12 C         142.5494  134.6868  155.7631 C.ar    1  UNL1        0.0536
     13 C         142.2237  134.0658  154.4372 C.ar    1  UNL1        0.0045
     14 C         142.7892  132.7236  154.0784 C.ar    1  UNL1        0.0001
     15 C         143.6805  132.0024  155.0457 C.ar    1  UNL1        0.0039
     16 C         144.0063  132.6234  156.3716 C.ar    1  UNL1        0.0716
     17 C         143.4407  133.9657  156.7303 C.ar    1  UNL1        0.0084
     18 C         144.8975  131.9024  157.3389 C.3     1  UNL1        0.4186
     19 F         145.7888  131.1814  158.3063 F       1  UNL1       -0.1659
     20 F         144.6706  132.9834  158.3538 F       1  UNL1       -0.1659
     21 F         145.1245  130.8213  156.3241 F       1  UNL1       -0.1659
     22 C         139.4662  139.8778  159.7047 C.1     1  UNL1       -0.0585
     23 C         139.5158  140.3574  161.1252 C.1     1  UNL1       -0.0386
     24 C         139.5653  140.8368  162.5456 C.ar    1  UNL1        0.1481
     25 N         140.1339  140.0830  163.7112 N.ar    1  UNL1       -0.1595
     26 N         139.9749  140.9346  164.9358 N.ar    1  UNL1       -0.2333
     27 C         139.3082  142.2146  164.5271 C.ar    1  UNL1        0.1659
     28 N         138.8989  143.4273  165.3092 N.ar    1  UNL1       -0.2050
     29 C         138.2364  144.5796  164.6140 C.ar    1  UNL1        0.2014
     30 N         137.9833  144.5192  163.1367 N.ar    1  UNL1       -0.2093
     31 C         138.3926  143.3064  162.3547 C.ar    1  UNL1        0.1322
     32 N         138.1394  143.2460  160.8774 N.pl3   1  UNL1       -0.3424
     33 C         139.0550  142.1541  163.0498 C.ar    1  UNL1        0.0938
     34 H         137.7046  144.0023  160.4212 H       1  UNL1        0.1437
     35 H         138.4081  142.4500  160.3641 H       1  UNL1        0.1437
     36 C         140.4069  140.5701  166.3253 C.3     1  UNL1        0.1316
     37 C         139.4416  139.9035  167.2602 C.3     1  UNL1        0.0538
     38 C         138.2893  139.1153  166.7118 C.3     1  UNL1        0.0046
     39 C         139.6288  140.0252  168.7435 C.3     1  UNL1        0.1391
     40 O         138.4716  139.7865  169.6676 O.3     1  UNL1       -0.3819
     41 H         137.8019  140.4748  169.5316 H       1  UNL1        0.2104
@<TRIPOS>BOND
     1     1     2    1
     2     2     3   ar
     3     3     4   ar
     4     4     5   ar
     5     5     8    1
     6     8     9   am
     7     9    10    2
     8     9    12    1
     9    12    13   ar
    10    13    14   ar
    11    14    15   ar
    12    15    16   ar
    13    16    18    1
    14    18    19    1
    15    18    20    1
    16    18    21    1
    17    16    17   ar
    18     5     6   ar
    19     6     7   ar
    20     7    22    1
    21    22    23    3
    22    23    24    1
    23    24    25   ar
    24    25    26   ar
    25    26    36    1
    26    36    37    1
    27    37    38    1
    28    37    39    1
    29    39    40    1
    30    26    27   ar
    31    27    28   ar
    32    28    29   ar
    33    29    30   ar
    34    30    31   ar
    35    31    32    1
    36    31    33   ar
    37     7     2   ar
    38    33    24   ar
    39    17    12   ar
    40    33    27   ar
    41     8    11    1
    42    40    41    1
    43    32    34    1
    44    32    35    1
@<TRIPOS>MOLECULE
*****
 41 44 0 0 0
SMALL
GASTEIGER

@<TRIPOS>ATOM
      1 C         137.8342  140.2257  159.3258 C.3     1  UNL1        0.0317
      2 C         138.3760  140.3942  160.7143 C.ar    1  UNL1       -0.0141
      3 C         137.5114  140.9806  161.7907 C.ar    1  UNL1       -0.0024
      4 C         138.0531  141.1491  163.1792 C.ar    1  UNL1        0.0144
      5 C         139.4596  140.7313  163.4914 C.ar    1  UNL1        0.0511
      6 C         140.3242  140.1450  162.4150 C.ar    1  UNL1        0.0226
      7 C         139.7824  139.9765  161.0265 C.ar    1  UNL1        0.0393
      8 N         140.0014  140.8998  164.8800 N.am    1  UNL1       -0.2804
      9 C         140.7169  142.1629  165.2577 C.2     1  UNL1        0.2495
     10 O         140.8906  143.2575  164.2468 O.2     1  UNL1       -0.2698
     11 H         139.8873  140.1815  165.5434 H       1  UNL1        0.1552
     12 C         141.2587  142.3315  166.6462 C.ar    1  UNL1        0.0536
     13 C         142.7174  142.1078  166.9144 C.ar    1  UNL1        0.0045
     14 C         143.2592  142.2763  168.3029 C.ar    1  UNL1        0.0001
     15 C         142.3422  142.6685  169.4233 C.ar    1  UNL1        0.0039
     16 C         140.8834  142.8922  169.1552 C.ar    1  UNL1        0.0716
     17 C         140.3417  142.7236  167.7666 C.ar    1  UNL1        0.0084
     18 C         139.9664  143.2844  170.2755 C.3     1  UNL1        0.4186
     19 F         139.0494  143.6767  171.3959 F       1  UNL1       -0.1659
     20 F         140.5056  144.6833  170.2271 F       1  UNL1       -0.1659
     21 F         139.4271  141.8855  170.3240 F       1  UNL1       -0.1659
     22 C         140.6470  139.3901  159.9501 C.1     1  UNL1       -0.0585
     23 C         141.5116  138.8037  158.8736 C.1     1  UNL1       -0.0386
     24 C         142.3762  138.2174  157.7972 C.ar    1  UNL1        0.1481
     25 N         142.3985  136.7798  157.3695 N.ar    1  UNL1       -0.1595
     26 N         143.4064  136.6397  156.2675 N.ar    1  UNL1       -0.2333
     27 C         144.0070  137.9907  156.0140 C.ar    1  UNL1        0.1659
     28 N         145.0513  138.4589  155.0445 N.ar    1  UNL1       -0.2050
     29 C         145.4590  139.9022  155.0204 C.ar    1  UNL1        0.2014
     30 N         144.8223  140.8773  155.9659 N.ar    1  UNL1       -0.2093
     31 C         143.7779  140.4091  156.9354 C.ar    1  UNL1        0.1322
     32 N         143.1412  141.3841  157.8808 N.pl3   1  UNL1       -0.3424
     33 C         143.3702  138.9658  156.9594 C.ar    1  UNL1        0.0938
     34 H         143.4088  142.3314  157.8650 H       1  UNL1        0.1437
     35 H         142.4557  141.0768  158.5171 H       1  UNL1        0.1437
     36 C         143.7529  135.3713  155.5456 C.3     1  UNL1        0.1316
     37 C         143.3971  134.0444  156.1479 C.3     1  UNL1        0.0538
     38 C         142.3575  133.1802  155.4978 C.3     1  UNL1        0.0046
     39 C         144.0809  133.5816  157.4002 C.3     1  UNL1        0.1391
     40 O         143.6387  134.1065  158.7339 O.3     1  UNL1       -0.3819
     41 H         143.8287  135.0562  158.7868 H       1  UNL1        0.2104
@<TRIPOS>BOND
     1     1     2    1
     2     2     3   ar
     3     3     4   ar
     4     4     5   ar
     5     5     8    1
     6     8     9   am
     7     9    10    2
     8     9    12    1
     9    12    13   ar
    10    13    14   ar
    11    14    15   ar
    12    15    16   ar
    13    16    18    1
    14    18    19    1
    15    18    20    1
    16    18    21    1
    17    16    17   ar
    18     5     6   ar
    19     6     7   ar
    20     7    22    1
    21    22    23    3
    22    23    24    1
    23    24    25   ar
    24    25    26   ar
    25    26    36    1
    26    36    37    1
    27    37    38    1
    28    37    39    1
    29    39    40    1
    30    26    27   ar
    31    27    28   ar
    32    28    29   ar
    33    29    30   ar
    34    30    31   ar
    35    31    32    1
    36    31    33   ar
    37     7     2   ar
    38    33    24   ar
    39    17    12   ar
    40    33    27   ar
    41     8    11    1
    42    40    41    1
    43    32    34    1
    44    32    35    1
@<TRIPOS>MOLECULE
*****
 41 44 0 0 0
SMALL
GASTEIGER

@<TRIPOS>ATOM
      1 C         140.5454  143.1505  159.0940 C.3     1  UNL1        0.0317
      2 C         140.6947  142.8354  160.5530 C.ar    1  UNL1       -0.0141
      3 C         140.4556  143.9031  161.5791 C.ar    1  UNL1       -0.0024
      4 C         140.6048  143.5881  163.0380 C.ar    1  UNL1        0.0144
      5 C         140.9933  142.2054  163.4709 C.ar    1  UNL1        0.0511
      6 C         141.2324  141.1377  162.4447 C.ar    1  UNL1        0.0226
      7 C         141.0831  141.4528  160.9858 C.ar    1  UNL1        0.0393
      8 N         141.1426  141.8903  164.9298 N.am    1  UNL1       -0.2804
      9 C         142.4717  141.4534  165.4705 C.2     1  UNL1        0.2495
     10 O         143.6516  141.3316  164.5523 O.2     1  UNL1       -0.2698
     11 H         140.3682  141.9702  165.5324 H       1  UNL1        0.1552
     12 C         142.6210  141.1384  166.9294 C.ar    1  UNL1        0.0536
     13 C         142.4021  139.7381  167.4206 C.ar    1  UNL1        0.0045
     14 C         142.5514  139.4230  168.8795 C.ar    1  UNL1        0.0001
     15 C         142.9196  140.5083  169.8473 C.ar    1  UNL1        0.0039
     16 C         143.1386  141.9086  169.3562 C.ar    1  UNL1        0.0716
     17 C         142.9893  142.2236  167.8972 C.ar    1  UNL1        0.0084
     18 C         143.5068  142.9939  170.3239 C.3     1  UNL1        0.4186
     19 F         143.8751  144.0792  171.2916 F       1  UNL1       -0.1659
     20 F         144.9606  142.7380  170.0576 F       1  UNL1       -0.1659
     21 F         142.0530  143.2498  170.5903 F       1  UNL1       -0.1659
     22 C         141.3222  140.3852  159.9596 C.1     1  UNL1       -0.0585
     23 C         141.5614  139.3175  158.9334 C.1     1  UNL1       -0.0386
     24 C         141.8005  138.2499  157.9073 C.ar    1  UNL1        0.1481
     25 N         143.0500  137.4333  157.7593 N.ar    1  UNL1       -0.1595
     26 N         142.8538  136.4902  156.6095 N.ar    1  UNL1       -0.2333
     27 C         141.4831  136.7239  156.0469 C.ar    1  UNL1        0.1659
     28 N         140.7436  136.0870  154.9078 N.ar    1  UNL1       -0.2050
     29 C         139.3532  136.5376  154.5709 C.ar    1  UNL1        0.2014
     30 N         138.7022  137.6252  155.3730 N.ar    1  UNL1       -0.2093
     31 C         139.4417  138.2622  156.5120 C.ar    1  UNL1        0.1322
     32 N         138.7907  139.3498  157.3141 N.pl3   1  UNL1       -0.3424
     33 C         140.8321  137.8115  156.8490 C.ar    1  UNL1        0.0938
     34 H         137.8781  139.6456  157.0930 H       1  UNL1        0.1437
     35 H         139.2761  139.7679  158.0617 H       1  UNL1        0.1437
     36 C         143.8529  135.4890  156.1099 C.3     1  UNL1        0.1316
     37 C         143.6899  134.0358  156.4443 C.3     1  UNL1        0.0538
     38 C         143.2284  133.0713  155.3921 C.3     1  UNL1        0.0046
     39 C         143.9884  133.5471  157.8306 C.3     1  UNL1        0.1391
     40 O         143.5848  134.3689  159.0187 O.3     1  UNL1       -0.3819
     41 H         144.0905  135.1967  159.0261 H       1  UNL1        0.2104
@<TRIPOS>BOND
     1     1     2    1
     2     2     3   ar
     3     3     4   ar
     4     4     5   ar
     5     5     8    1
     6     8     9   am
     7     9    10    2
     8     9    12    1
     9    12    13   ar
    10    13    14   ar
    11    14    15   ar
    12    15    16   ar
    13    16    18    1
    14    18    19    1
    15    18    20    1
    16    18    21    1
    17    16    17   ar
    18     5     6   ar
    19     6     7   ar
    20     7    22    1
    21    22    23    3
    22    23    24    1
    23    24    25   ar
    24    25    26   ar
    25    26    36    1
    26    36    37    1
    27    37    38    1
    28    37    39    1
    29    39    40    1
    30    26    27   ar
    31    27    28   ar
    32    28    29   ar
    33    29    30   ar
    34    30    31   ar
    35    31    32    1
    36    31    33   ar
    37     7     2   ar
    38    33    24   ar
    39    17    12   ar
    40    33    27   ar
    41     8    11    1
    42    40    41    1
    43    32    34    1
    44    32    35    1
@<TRIPOS>MOLECULE
*****
 41 44 0 0 0
SMALL
GASTEIGER

@<TRIPOS>ATOM
      1 C         138.8171  141.2967  156.8109 C.3     1  UNL1        0.0317
      2 C         139.3249  139.9131  156.5318 C.ar    1  UNL1       -0.0141
      3 C         139.6132  139.4901  155.1219 C.ar    1  UNL1       -0.0024
      4 C         140.1209  138.1066  154.8428 C.ar    1  UNL1        0.0144
      5 C         140.3404  137.1459  155.9737 C.ar    1  UNL1        0.0511
      6 C         140.0521  137.5688  157.3837 C.ar    1  UNL1        0.0226
      7 C         139.5443  138.9524  157.6627 C.ar    1  UNL1        0.0393
      8 N         140.8482  135.7623  155.6947 N.am    1  UNL1       -0.2804
      9 C         142.2727  135.4095  156.0049 C.2     1  UNL1        0.2495
     10 O         143.1894  136.4402  156.5942 O.2     1  UNL1       -0.2698
     11 H         140.2465  135.0858  155.3080 H       1  UNL1        0.1552
     12 C         142.7805  134.0259  155.7259 C.ar    1  UNL1        0.0536
     13 C         142.5650  133.4056  154.3773 C.ar    1  UNL1        0.0045
     14 C         143.0728  132.0220  154.0983 C.ar    1  UNL1        0.0001
     15 C         143.7961  131.2586  155.1679 C.ar    1  UNL1        0.0039
     16 C         144.0116  131.8788  156.5166 C.ar    1  UNL1        0.0716
     17 C         143.5038  133.2625  156.7955 C.ar    1  UNL1        0.0084
     18 C         144.7349  131.1156  157.5862 C.3     1  UNL1        0.4186
     19 F         145.4581  130.3522  158.6559 F       1  UNL1       -0.1659
     20 F         144.2847  129.8245  156.9693 F       1  UNL1       -0.1659
     21 F         145.1850  132.4066  158.2032 F       1  UNL1       -0.1659
     22 C         139.2560  139.3754  159.0727 C.1     1  UNL1       -0.0585
     23 C         138.9676  139.7984  160.4826 C.1     1  UNL1       -0.0386
     24 C         138.6793  140.2214  161.8926 C.ar    1  UNL1        0.1481
     25 N         138.6619  139.3257  163.0957 N.ar    1  UNL1       -0.1595
     26 N         138.3296  140.1651  164.2936 N.ar    1  UNL1       -0.2333
     27 C         138.1417  141.5795  163.8309 C.ar    1  UNL1        0.1659
     28 N         137.8017  142.8403  164.5690 N.ar    1  UNL1       -0.2050
     29 C         137.6779  144.1358  163.8232 C.ar    1  UNL1        0.2014
     30 N         137.8940  144.1706  162.3393 N.ar    1  UNL1       -0.2093
     31 C         138.2340  142.9098  161.6011 C.ar    1  UNL1        0.1322
     32 N         138.4501  142.9446  160.1172 N.pl3   1  UNL1       -0.3424
     33 C         138.3578  141.6143  162.3469 C.ar    1  UNL1        0.0938
     34 H         138.3688  143.7949  159.6277 H       1  UNL1        0.1437
     35 H         138.6733  142.1171  159.6327 H       1  UNL1        0.1437
     36 C         138.2068  139.6760  165.7063 C.3     1  UNL1        0.1316
     37 C         139.4163  139.6322  166.5926 C.3     1  UNL1        0.0538
     38 C         139.2714  139.8463  168.0702 C.3     1  UNL1        0.0046
     39 C         140.7705  139.3742  166.0014 C.3     1  UNL1        0.1391
     40 O         140.9854  138.1886  165.1082 O.3     1  UNL1       -0.3819
     41 H         140.8744  137.3729  165.6213 H       1  UNL1        0.2104
@<TRIPOS>BOND
     1     1     2    1
     2     2     3   ar
     3     3     4   ar
     4     4     5   ar
     5     5     8    1
     6     8     9   am
     7     9    10    2
     8     9    12    1
     9    12    13   ar
    10    13    14   ar
    11    14    15   ar
    12    15    16   ar
    13    16    18    1
    14    18    19    1
    15    18    20    1
    16    18    21    1
    17    16    17   ar
    18     5     6   ar
    19     6     7   ar
    20     7    22    1
    21    22    23    3
    22    23    24    1
    23    24    25   ar
    24    25    26   ar
    25    26    36    1
    26    36    37    1
    27    37    38    1
    28    37    39    1
    29    39    40    1
    30    26    27   ar
    31    27    28   ar
    32    28    29   ar
    33    29    30   ar
    34    30    31   ar
    35    31    32    1
    36    31    33   ar
    37     7     2   ar
    38    33    24   ar
    39    17    12   ar
    40    33    27   ar
    41     8    11    1
    42    40    41    1
    43    32    34    1
    44    32    35    1
@<TRIPOS>MOLECULE
*****
 41 44 0 0 0
SMALL
GASTEIGER

@<TRIPOS>ATOM
      1 C         140.8003  145.3376  158.7306 C.3     1  UNL1        0.0317
      2 C         141.0987  144.9647  160.1525 C.ar    1  UNL1       -0.0141
      3 C         140.3826  145.6554  161.2751 C.ar    1  UNL1       -0.0024
      4 C         140.6809  145.2826  162.6970 C.ar    1  UNL1        0.0144
      5 C         141.6955  144.2191  162.9965 C.ar    1  UNL1        0.0511
      6 C         142.4116  143.5284  161.8739 C.ar    1  UNL1        0.0226
      7 C         142.1132  143.9012  160.4520 C.ar    1  UNL1        0.0393
      8 N         141.9939  143.8462  164.4184 N.am    1  UNL1       -0.2804
      9 C         141.1371  142.8379  165.1250 C.2     1  UNL1        0.2495
     10 O         139.9819  142.2024  164.4096 O.2     1  UNL1       -0.2698
     11 H         142.7520  144.2633  164.8880 H       1  UNL1        0.1552
     12 C         141.4355  142.4651  166.5469 C.ar    1  UNL1        0.0536
     13 C         142.6237  141.6061  166.8636 C.ar    1  UNL1        0.0045
     14 C         142.9221  141.2333  168.2855 C.ar    1  UNL1        0.0001
     15 C         142.0322  141.7194  169.3909 C.ar    1  UNL1        0.0039
     16 C         140.8440  142.5783  169.0743 C.ar    1  UNL1        0.0716
     17 C         140.5456  142.9512  167.6523 C.ar    1  UNL1        0.0084
     18 C         139.9540  143.0645  170.1796 C.3     1  UNL1        0.4186
     19 F         139.0642  143.5507  171.2849 F       1  UNL1       -0.1659
     20 F         140.6143  144.4100  170.1193 F       1  UNL1       -0.1659
     21 F         139.2938  141.7190  170.2399 F       1  UNL1       -0.1659
     22 C         142.8293  143.2105  159.3294 C.1     1  UNL1       -0.0585
     23 C         143.5454  142.5198  158.2068 C.1     1  UNL1       -0.0386
     24 C         144.2615  141.8291  157.0843 C.ar    1  UNL1        0.1481
     25 N         145.2447  142.4614  156.1443 N.ar    1  UNL1       -0.1595
     26 N         145.7109  141.4079  155.1837 N.ar    1  UNL1       -0.2333
     27 C         145.0160  140.1245  155.5300 C.ar    1  UNL1        0.1659
     28 N         145.0831  138.7525  154.9275 N.ar    1  UNL1       -0.2050
     29 C         144.2544  137.6408  155.4997 C.ar    1  UNL1        0.2014
     30 N         143.3586  137.9011  156.6743 N.ar    1  UNL1       -0.2093
     31 C         143.2915  139.2731  157.2768 C.ar    1  UNL1        0.1322
     32 N         142.3957  139.5334  158.4514 N.pl3   1  UNL1       -0.3424
     33 C         144.1201  140.3848  156.7047 C.ar    1  UNL1        0.0938
     34 H         141.8518  138.8038  158.8269 H       1  UNL1        0.1437
     35 H         142.3516  140.4339  158.8469 H       1  UNL1        0.1437
     36 C         146.6988  141.6034  154.0720 C.3     1  UNL1        0.1316
     37 C         148.0495  142.1875  154.3630 C.3     1  UNL1        0.0538
     38 C         148.6597  143.1756  153.4136 C.3     1  UNL1        0.0046
     39 C         148.7900  141.7833  155.6033 C.3     1  UNL1        0.1391
     40 O         148.3105  142.2456  156.9472 O.3     1  UNL1       -0.3819
     41 H         148.4030  143.2091  157.0097 H       1  UNL1        0.2104
@<TRIPOS>BOND
     1     1     2    1
     2     2     3   ar
     3     3     4   ar
     4     4     5   ar
     5     5     8    1
     6     8     9   am
     7     9    10    2
     8     9    12    1
     9    12    13   ar
    10    13    14   ar
    11    14    15   ar
    12    15    16   ar
    13    16    18    1
    14    18    19    1
    15    18    20    1
    16    18    21    1
    17    16    17   ar
    18     5     6   ar
    19     6     7   ar
    20     7    22    1
    21    22    23    3
    22    23    24    1
    23    24    25   ar
    24    25    26   ar
    25    26    36    1
    26    36    37    1
    27    37    38    1
    28    37    39    1
    29    39    40    1
    30    26    27   ar
    31    27    28   ar
    32    28    29   ar
    33    29    30   ar
    34    30    31   ar
    35    31    32    1
    36    31    33   ar
    37     7     2   ar
    38    33    24   ar
    39    17    12   ar
    40    33    27   ar
    41     8    11    1
    42    40    41    1
    43    32    34    1
    44    32    35    1
@<TRIPOS>MOLECULE
*****
 41 44 0 0 0
SMALL
GASTEIGER

@<TRIPOS>ATOM
      1 C         141.4753  143.7147  158.9439 C.3     1  UNL1        0.0317
      2 C         141.3563  143.3851  160.4024 C.ar    1  UNL1       -0.0141
      3 C         141.1901  144.4849  161.4087 C.ar    1  UNL1       -0.0024
      4 C         141.0711  144.1554  162.8671 C.ar    1  UNL1        0.0144
      5 C         141.1184  142.7259  163.3194 C.ar    1  UNL1        0.0511
      6 C         141.2847  141.6261  162.3131 C.ar    1  UNL1        0.0226
      7 C         141.4036  141.9557  160.8546 C.ar    1  UNL1        0.0393
      8 N         140.9995  142.3963  164.7779 N.am    1  UNL1       -0.2804
      9 C         142.1932  142.5285  165.6765 C.2     1  UNL1        0.2495
     10 O         143.5060  142.9903  165.1165 O.2     1  UNL1       -0.2698
     11 H         140.1379  142.0932  165.1454 H       1  UNL1        0.1552
     12 C         142.0743  142.1989  167.1350 C.ar    1  UNL1        0.0536
     13 C         143.2622  142.3523  168.0379 C.ar    1  UNL1        0.0045
     14 C         143.1432  142.0227  169.4964 C.ar    1  UNL1        0.0001
     15 C         141.8363  141.5397  170.0520 C.ar    1  UNL1        0.0039
     16 C         140.6484  141.3863  169.1491 C.ar    1  UNL1        0.0716
     17 C         140.7674  141.7159  167.6906 C.ar    1  UNL1        0.0084
     18 C         139.3415  140.9033  169.7046 C.3     1  UNL1        0.4186
     19 F         138.0345  140.4202  170.2600 F       1  UNL1       -0.1659
     20 F         139.3976  139.7092  168.7985 F       1  UNL1       -0.1659
     21 F         139.2852  142.0973  170.6107 F       1  UNL1       -0.1659
     22 C         141.5699  140.8558  159.8482 C.1     1  UNL1       -0.0585
     23 C         141.7361  139.7559  158.8419 C.1     1  UNL1       -0.0386
     24 C         141.9024  138.6561  157.8356 C.ar    1  UNL1        0.1481
     25 N         143.1556  137.8700  157.5876 N.ar    1  UNL1       -0.1595
     26 N         142.8723  136.8774  156.4993 N.ar    1  UNL1       -0.2333
     27 C         141.4440  137.0499  156.0747 C.ar    1  UNL1        0.1659
     28 N         140.6119  136.3481  155.0427 N.ar    1  UNL1       -0.2050
     29 C         139.1803  136.7456  154.8367 C.ar    1  UNL1        0.2014
     30 N         138.5809  137.8449  155.6626 N.ar    1  UNL1       -0.2093
     31 C         139.4130  138.5468  156.6945 C.ar    1  UNL1        0.1322
     32 N         138.8135  139.6461  157.5204 N.pl3   1  UNL1       -0.3424
     33 C         140.8446  138.1493  156.9006 C.ar    1  UNL1        0.0938
     34 H         137.8739  139.9070  157.3852 H       1  UNL1        0.1437
     35 H         139.3597  140.1068  158.1977 H       1  UNL1        0.1437
     36 C         143.8463  135.8861  155.9346 C.3     1  UNL1        0.1316
     37 C         143.5751  134.4157  156.0556 C.3     1  UNL1        0.0538
     38 C         143.0460  133.6513  154.8784 C.3     1  UNL1        0.0046
     39 C         143.8329  133.7098  157.3537 C.3     1  UNL1        0.1391
     40 O         142.9319  132.5938  157.7925 O.3     1  UNL1       -0.3819
     41 H         142.0458  132.9452  157.9722 H       1  UNL1        0.2104
@<TRIPOS>BOND
     1     1     2    1
     2     2     3   ar
     3     3     4   ar
     4     4     5   ar
     5     5     8    1
     6     8     9   am
     7     9    10    2
     8     9    12    1
     9    12    13   ar
    10    13    14   ar
    11    14    15   ar
    12    15    16   ar
    13    16    18    1
    14    18    19    1
    15    18    20    1
    16    18    21    1
    17    16    17   ar
    18     5     6   ar
    19     6     7   ar
    20     7    22    1
    21    22    23    3
    22    23    24    1
    23    24    25   ar
    24    25    26   ar
    25    26    36    1
    26    36    37    1
    27    37    38    1
    28    37    39    1
    29    39    40    1
    30    26    27   ar
    31    27    28   ar
    32    28    29   ar
    33    29    30   ar
    34    30    31   ar
    35    31    32    1
    36    31    33   ar
    37     7     2   ar
    38    33    24   ar
    39    17    12   ar
    40    33    27   ar
    41     8    11    1
    42    40    41    1
    43    32    34    1
    44    32    35    1
@<TRIPOS>MOLECULE
*****
 41 44 0 0 0
SMALL
GASTEIGER

@<TRIPOS>ATOM
      1 C         142.2702  138.2425  159.3278 C.3     1  UNL1        0.0317
      2 C         142.1654  138.7405  160.7388 C.ar    1  UNL1       -0.0141
      3 C         143.0882  138.2055  161.7935 C.ar    1  UNL1       -0.0024
      4 C         142.9834  138.7034  163.2045 C.ar    1  UNL1        0.0144
      5 C         141.9559  139.7365  163.5609 C.ar    1  UNL1        0.0511
      6 C         141.0331  140.2715  162.5063 C.ar    1  UNL1        0.0226
      7 C         141.1379  139.7735  161.0952 C.ar    1  UNL1        0.0393
      8 N         141.8511  140.2345  164.9720 N.am    1  UNL1       -0.2804
      9 C         140.7528  139.7358  165.8636 C.2     1  UNL1        0.2495
     10 O         139.7593  138.7392  165.3443 O.2     1  UNL1       -0.2698
     11 H         142.5031  140.8886  165.3128 H       1  UNL1        0.1552
     12 C         140.6480  140.2338  167.2747 C.ar    1  UNL1        0.0536
     13 C         139.4260  139.9283  168.0891 C.ar    1  UNL1        0.0045
     14 C         139.3212  140.4264  169.5001 C.ar    1  UNL1        0.0001
     15 C         140.4384  141.2299  170.0968 C.ar    1  UNL1        0.0039
     16 C         141.6605  141.5355  169.2824 C.ar    1  UNL1        0.0716
     17 C         141.7652  141.0374  167.8713 C.ar    1  UNL1        0.0084
     18 C         142.7778  142.3390  169.8790 C.3     1  UNL1        0.4186
     19 F         143.8952  143.1425  170.4755 F       1  UNL1       -0.1659
     20 F         143.6635  141.1287  169.8501 F       1  UNL1       -0.1659
     21 F         141.8921  143.5493  169.9078 F       1  UNL1       -0.1659
     22 C         140.2152  140.3085  160.0406 C.1     1  UNL1       -0.0585
     23 C         139.2924  140.8434  158.9859 C.1     1  UNL1       -0.0386
     24 C         138.3696  141.3784  157.9312 C.ar    1  UNL1        0.1481
     25 N         137.1196  140.7147  157.4342 N.ar    1  UNL1       -0.1595
     26 N         136.5124  141.5972  156.3842 N.ar    1  UNL1       -0.2333
     27 C         137.3871  142.8063  156.2323 C.ar    1  UNL1        0.1659
     28 N         137.2867  144.0129  155.3469 N.ar    1  UNL1       -0.2050
     29 C         138.3341  145.0842  155.4175 C.ar    1  UNL1        0.2014
     30 N         139.4819  144.9490  156.3736 N.ar    1  UNL1       -0.2093
     31 C         139.5824  143.7424  157.2591 C.ar    1  UNL1        0.1322
     32 N         140.7302  143.6072  158.2152 N.pl3   1  UNL1       -0.3424
     33 C         138.5350  142.6711  157.1884 C.ar    1  UNL1        0.0938
     34 H         141.4177  144.3104  158.2616 H       1  UNL1        0.1437
     35 H         140.7961  142.8153  158.7963 H       1  UNL1        0.1437
     36 C         135.2518  141.3194  155.6203 C.3     1  UNL1        0.1316
     37 C         134.8019  139.9048  155.4044 C.3     1  UNL1        0.0538
     38 C         135.6121  138.9835  154.5415 C.3     1  UNL1        0.0046
     39 C         133.5417  139.4115  156.0515 C.3     1  UNL1        0.1391
     40 O         133.5585  138.1482  156.8599 O.3     1  UNL1       -0.3819
     41 H         133.7481  137.3950  156.2789 H       1  UNL1        0.2104
@<TRIPOS>BOND
     1     1     2    1
     2     2     3   ar
     3     3     4   ar
     4     4     5   ar
     5     5     8    1
     6     8     9   am
     7     9    10    2
     8     9    12    1
     9    12    13   ar
    10    13    14   ar
    11    14    15   ar
    12    15    16   ar
    13    16    18    1
    14    18    19    1
    15    18    20    1
    16    18    21    1
    17    16    17   ar
    18     5     6   ar
    19     6     7   ar
    20     7    22    1
    21    22    23    3
    22    23    24    1
    23    24    25   ar
    24    25    26   ar
    25    26    36    1
    26    36    37    1
    27    37    38    1
    28    37    39    1
    29    39    40    1
    30    26    27   ar
    31    27    28   ar
    32    28    29   ar
    33    29    30   ar
    34    30    31   ar
    35    31    32    1
    36    31    33   ar
    37     7     2   ar
    38    33    24   ar
    39    17    12   ar
    40    33    27   ar
    41     8    11    1
    42    40    41    1
    43    32    34    1
    44    32    35    1
