@<TRIPOS>MOLECULE
*****
 32 36 0 0 0
SMALL
GASTEIGER

@<TRIPOS>ATOM
      1 C         141.9631  140.0233  167.1875 C.ar    1  UNL1        0.0327
      2 C         142.9960  139.0269  167.6239 C.ar    1  UNL1        0.1001
      3 N         143.8857  138.3750  166.6073 N.ar    1  UNL1       -0.2420
      4 C         143.7425  138.7194  165.1545 C.ar    1  UNL1        0.1078
      5 C         142.7096  139.7157  164.7181 C.ar    1  UNL1        0.1207
      6 C         141.8199  140.3677  165.7347 C.ar    1  UNL1        0.0583
      7 C         142.5664  140.0601  163.2652 C.2     1  UNL1        0.3780
      8 N         143.4143  141.0343  162.5023 N.2     1  UNL1       -0.0308
      9 C         142.9221  141.0671  161.0857 C.2     1  UNL1        0.2321
     10 C         143.3742  141.8423  159.8838 C.2     1  UNL1        0.0498
     11 C         142.6741  141.6636  158.5693 C.2     1  UNL1       -0.0002
     12 C         141.5220  140.7097  158.4567 C.2     1  UNL1       -0.0172
     13 C         141.0699  139.9345  159.6587 C.3     1  UNL1        0.1037
     14 C         141.7700  140.1132  160.9731 C.2     1  UNL1        0.2178
     15 N         141.5502  139.4909  162.3202 N.2     1  UNL1       -0.0346
     16 N         140.7870  141.3640  165.2983 N.pl3   1  UNL1       -0.3071
     17 C         139.3762  140.9206  165.0474 C.3     1  UNL1        0.0921
     18 C         138.3432  141.9169  164.6111 C.3     1  UNL1        0.0369
     19 C         138.7211  143.3567  164.4257 C.3     1  UNL1        0.0542
     20 N         137.6881  144.3530  163.9894 N.3     1  UNL1       -0.3221
     21 C         140.1319  143.8001  164.6767 C.3     1  UNL1        0.0369
     22 C         141.1648  142.8037  165.1130 C.3     1  UNL1        0.0921
     23 H         136.7919  143.8817  163.8662 H       1  UNL1        0.1188
     24 H         137.9746  144.7750  163.1061 H       1  UNL1        0.1188
     25 C         140.6977  144.1588  170.0678 C.3     1  UNL1        0.0310
     26 C         140.4407  142.7430  169.6442 C.ar    1  UNL1       -0.0222
     27 C         139.2939  141.9792  170.2372 C.ar    1  UNL1       -0.0085
     28 C         139.0369  140.5634  169.8136 C.ar    1  UNL1       -0.0222
     29 C         137.8902  139.7996  170.4065 C.3     1  UNL1        0.0310
     30 C         139.9267  139.9114  168.7970 C.ar    1  UNL1       -0.0042
     31 C         141.0734  140.6752  168.2041 C.ar    1  UNL1        0.0021
     32 C         141.3304  142.0910  168.6277 C.ar    1  UNL1       -0.0042
@<TRIPOS>BOND
     1    25    26    1
     2    26    27   ar
     3    27    28   ar
     4    28    29    1
     5    28    30   ar
     6    30    31   ar
     7    31     1    1
     8     1     2   ar
     9     2     3   ar
    10     3     4   ar
    11     4     5   ar
    12     5     7    1
    13     7     8    2
    14     8     9    1
    15     9    10    2
    16    10    11    1
    17    11    12    2
    18    12    13    1
    19    13    14    1
    20    14    15    2
    21     5     6   ar
    22     6    16    1
    23    16    17    1
    24    17    18    1
    25    18    19    1
    26    19    20    1
    27    19    21    1
    28    21    22    1
    29    31    32   ar
    30    32    26   ar
    31     6     1   ar
    32    22    16    1
    33    15     7    1
    34    14     9    1
    35    20    23    1
    36    20    24    1
@<TRIPOS>MOLECULE
*****
 32 36 0 0 0
SMALL
GASTEIGER

@<TRIPOS>ATOM
      1 C         141.9202  140.0315  167.0023 C.ar    1  UNL1        0.0327
      2 C         142.9643  139.0214  167.3759 C.ar    1  UNL1        0.1001
      3 N         143.8099  138.3880  166.3111 N.ar    1  UNL1       -0.2420
      4 C         143.6113  138.7647  164.8728 C.ar    1  UNL1        0.1078
      5 C         142.5672  139.7747  164.4992 C.ar    1  UNL1        0.1207
      6 C         141.7216  140.4081  165.5640 C.ar    1  UNL1        0.0583
      7 C         142.3686  140.1513  163.0609 C.2     1  UNL1        0.3780
      8 N         143.1902  141.1390  162.2866 N.2     1  UNL1       -0.0308
      9 C         142.6430  141.2045  160.8915 C.2     1  UNL1        0.2321
     10 C         143.0510  142.0043  159.6899 C.2     1  UNL1        0.0498
     11 C         142.2991  141.8568  158.4004 C.2     1  UNL1       -0.0002
     12 C         141.1393  140.9097  158.3125 C.2     1  UNL1       -0.0172
     13 C         140.7314  140.1099  159.5141 C.3     1  UNL1        0.1037
     14 C         141.4832  140.2573  160.8036 C.2     1  UNL1        0.2178
     15 N         141.3137  139.6064  162.1444 N.2     1  UNL1       -0.0346
     16 N         140.6774  141.4182  165.1905 N.pl3   1  UNL1       -0.3071
     17 C         141.0518  142.8627  165.0385 C.3     1  UNL1        0.0921
     18 C         140.0077  143.8728  164.6650 C.3     1  UNL1        0.0369
     19 C         138.5891  143.4384  164.4435 C.3     1  UNL1        0.0542
     20 N         137.5450  144.4484  164.0700 N.3     1  UNL1       -0.3221
     21 C         138.2148  141.9938  164.5955 C.3     1  UNL1        0.0369
     22 C         139.2589  140.9837  164.9690 C.3     1  UNL1        0.0921
     23 H         137.9720  145.3729  164.0110 H       1  UNL1        0.1188
     24 H         136.8116  144.4573  164.7787 H       1  UNL1        0.1188
     25 C         137.9458  139.7723  170.3396 C.3     1  UNL1        0.0310
     26 C         139.0874  140.5353  169.7357 C.ar    1  UNL1       -0.0222
     27 C         139.3833  141.9318  170.1966 C.ar    1  UNL1       -0.0085
     28 C         140.5248  142.6948  169.5927 C.ar    1  UNL1       -0.0222
     29 C         140.8207  144.0912  170.0535 C.3     1  UNL1        0.0310
     30 C         141.3704  142.0613  168.5279 C.ar    1  UNL1       -0.0042
     31 C         141.0745  140.6649  168.0671 C.ar    1  UNL1        0.0021
     32 C         139.9330  139.9019  168.6710 C.ar    1  UNL1       -0.0042
@<TRIPOS>BOND
     1    25    26    1
     2    26    27   ar
     3    27    28   ar
     4    28    29    1
     5    28    30   ar
     6    30    31   ar
     7    31     1    1
     8     1     2   ar
     9     2     3   ar
    10     3     4   ar
    11     4     5   ar
    12     5     7    1
    13     7     8    2
    14     8     9    1
    15     9    10    2
    16    10    11    1
    17    11    12    2
    18    12    13    1
    19    13    14    1
    20    14    15    2
    21     5     6   ar
    22     6    16    1
    23    16    17    1
    24    17    18    1
    25    18    19    1
    26    19    20    1
    27    19    21    1
    28    21    22    1
    29    31    32   ar
    30    32    26   ar
    31     6     1   ar
    32    22    16    1
    33    15     7    1
    34    14     9    1
    35    20    23    1
    36    20    24    1
@<TRIPOS>MOLECULE
*****
 32 36 0 0 0
SMALL
GASTEIGER

@<TRIPOS>ATOM
      1 C         139.6335  140.5938  167.8311 C.ar    1  UNL1        0.0327
      2 C         138.7576  139.6128  168.5524 C.ar    1  UNL1        0.1001
      3 N         137.9356  138.6282  167.7745 N.ar    1  UNL1       -0.2420
      4 C         137.9896  138.6248  166.2755 C.ar    1  UNL1        0.1078
      5 C         138.8656  139.6058  165.5543 C.ar    1  UNL1        0.1207
      6 C         139.6875  140.5903  166.3321 C.ar    1  UNL1        0.0583
      7 C         138.9196  139.6024  164.0553 C.2     1  UNL1        0.3780
      8 N         139.7733  138.7082  163.2058 N.2     1  UNL1       -0.0308
      9 C         139.5107  139.0457  161.7681 C.2     1  UNL1        0.2321
     10 C         140.0655  138.4913  160.4895 C.2     1  UNL1        0.0498
     11 C         139.6042  139.0397  159.1717 C.2     1  UNL1       -0.0002
     12 C         138.5881  140.1424  159.1326 C.2     1  UNL1       -0.0172
     13 C         138.0333  140.6967  160.4112 C.3     1  UNL1        0.1037
     14 C         138.4946  140.1484  161.7289 C.2     1  UNL1        0.2178
     15 N         138.1293  140.4924  163.1425 N.2     1  UNL1       -0.0346
     16 N         140.5635  141.5715  165.6109 N.pl3   1  UNL1       -0.3071
     17 C         140.0468  142.9422  165.2881 C.3     1  UNL1        0.0921
     18 C         140.9228  143.9233  164.5670 C.3     1  UNL1        0.0369
     19 C         142.3155  143.5337  164.1686 C.3     1  UNL1        0.0542
     20 N         143.1914  144.5148  163.4474 N.3     1  UNL1       -0.3221
     21 C         142.8322  142.1630  164.4913 C.3     1  UNL1        0.0369
     22 C         141.9562  141.1819  165.2125 C.3     1  UNL1        0.0921
     23 H         142.6832  145.3888  163.3119 H       1  UNL1        0.1188
     24 H         143.4562  144.1313  162.5401 H       1  UNL1        0.1188
     25 C         140.0183  145.0812  170.4225 C.3     1  UNL1        0.0310
     26 C         140.6479  143.8221  169.9046 C.ar    1  UNL1       -0.0222
     27 C         142.0995  143.5476  170.1646 C.ar    1  UNL1       -0.0085
     28 C         142.7291  142.2884  169.6467 C.ar    1  UNL1       -0.0222
     29 C         144.1807  142.0139  169.9066 C.3     1  UNL1        0.0310
     30 C         141.9071  141.3038  168.8689 C.ar    1  UNL1       -0.0042
     31 C         140.4556  141.5784  168.6090 C.ar    1  UNL1        0.0021
     32 C         139.8259  142.8375  169.1268 C.ar    1  UNL1       -0.0042
@<TRIPOS>BOND
     1    25    26    1
     2    26    27   ar
     3    27    28   ar
     4    28    29    1
     5    28    30   ar
     6    30    31   ar
     7    31     1    1
     8     1     2   ar
     9     2     3   ar
    10     3     4   ar
    11     4     5   ar
    12     5     7    1
    13     7     8    2
    14     8     9    1
    15     9    10    2
    16    10    11    1
    17    11    12    2
    18    12    13    1
    19    13    14    1
    20    14    15    2
    21     5     6   ar
    22     6    16    1
    23    16    17    1
    24    17    18    1
    25    18    19    1
    26    19    20    1
    27    19    21    1
    28    21    22    1
    29    31    32   ar
    30    32    26   ar
    31     6     1   ar
    32    22    16    1
    33    15     7    1
    34    14     9    1
    35    20    23    1
    36    20    24    1
@<TRIPOS>MOLECULE
*****
 32 36 0 0 0
SMALL
GASTEIGER

@<TRIPOS>ATOM
      1 C         139.0828  141.7219  163.2723 C.ar    1  UNL1        0.0327
      2 C         137.8293  142.3835  162.7814 C.ar    1  UNL1        0.1001
      3 N         137.7460  142.8769  161.3674 N.ar    1  UNL1       -0.2420
      4 C         138.9163  142.7087  160.4442 C.ar    1  UNL1        0.1078
      5 C         140.1698  142.0471  160.9350 C.ar    1  UNL1        0.1207
      6 C         140.2530  141.5537  162.3491 C.ar    1  UNL1        0.0583
      7 C         141.3400  141.8789  160.0118 C.2     1  UNL1        0.3780
      8 N         142.4891  142.8313  159.8623 N.2     1  UNL1       -0.0308
      9 C         143.4259  142.2698  158.8341 C.2     1  UNL1        0.2321
     10 C         144.7244  142.7739  158.2777 C.2     1  UNL1        0.0498
     11 C         145.4527  141.9784  157.2352 C.2     1  UNL1       -0.0002
     12 C         144.8825  140.6789  156.7492 C.2     1  UNL1       -0.0172
     13 C         143.5840  140.1749  157.3057 C.3     1  UNL1        0.1037
     14 C         142.8557  140.9703  158.3482 C.2     1  UNL1        0.2178
     15 N         141.5666  140.7287  159.0760 N.2     1  UNL1       -0.0346
     16 N         141.5066  140.8920  162.8400 N.pl3   1  UNL1       -0.3071
     17 C         142.6366  141.7248  163.3687 C.3     1  UNL1        0.0921
     18 C         143.8900  141.0633  163.8596 C.3     1  UNL1        0.0369
     19 C         144.0136  139.5688  163.8218 C.3     1  UNL1        0.0542
     20 N         145.2671  138.9072  164.3127 N.3     1  UNL1       -0.3221
     21 C         142.8837  138.7360  163.2931 C.3     1  UNL1        0.0369
     22 C         141.6301  139.3976  162.8021 C.3     1  UNL1        0.0921
     23 H         145.9238  139.6187  164.6337 H       1  UNL1        0.1188
     24 H         145.6893  138.3727  163.5534 H       1  UNL1        0.1188
     25 C         140.9086  142.2191  168.1116 C.3     1  UNL1        0.0310
     26 C         140.0790  141.4771  167.1060 C.ar    1  UNL1       -0.0222
     27 C         139.3328  140.2416  167.5146 C.ar    1  UNL1       -0.0085
     28 C         138.5033  139.4995  166.5089 C.ar    1  UNL1       -0.0222
     29 C         137.7571  138.2641  166.9174 C.3     1  UNL1        0.0310
     30 C         138.4200  139.9930  165.0948 C.ar    1  UNL1       -0.0042
     31 C         139.1662  141.2284  164.6864 C.ar    1  UNL1        0.0021
     32 C         139.9957  141.9705  165.6920 C.ar    1  UNL1       -0.0042
@<TRIPOS>BOND
     1    25    26    1
     2    26    27   ar
     3    27    28   ar
     4    28    29    1
     5    28    30   ar
     6    30    31   ar
     7    31     1    1
     8     1     2   ar
     9     2     3   ar
    10     3     4   ar
    11     4     5   ar
    12     5     7    1
    13     7     8    2
    14     8     9    1
    15     9    10    2
    16    10    11    1
    17    11    12    2
    18    12    13    1
    19    13    14    1
    20    14    15    2
    21     5     6   ar
    22     6    16    1
    23    16    17    1
    24    17    18    1
    25    18    19    1
    26    19    20    1
    27    19    21    1
    28    21    22    1
    29    31    32   ar
    30    32    26   ar
    31     6     1   ar
    32    22    16    1
    33    15     7    1
    34    14     9    1
    35    20    23    1
    36    20    24    1
@<TRIPOS>MOLECULE
*****
 32 36 0 0 0
SMALL
GASTEIGER

@<TRIPOS>ATOM
      1 C         139.0609  141.7342  163.2875 C.ar    1  UNL1        0.0327
      2 C         137.8049  142.3925  162.7987 C.ar    1  UNL1        0.1001
      3 N         137.7184  142.8866  161.3851 N.ar    1  UNL1       -0.2420
      4 C         138.8879  142.7225  160.4603 C.ar    1  UNL1        0.1078
      5 C         140.1440  142.0642  160.9491 C.ar    1  UNL1        0.1207
      6 C         140.2305  141.5700  162.3627 C.ar    1  UNL1        0.0583
      7 C         141.3135  141.9000  160.0243 C.2     1  UNL1        0.3780
      8 N         142.4506  142.8646  159.8611 N.2     1  UNL1       -0.0308
      9 C         143.3912  142.3032  158.8363 C.2     1  UNL1        0.2321
     10 C         144.6819  142.8168  158.2705 C.2     1  UNL1        0.0498
     11 C         145.4168  142.0189  157.2345 C.2     1  UNL1       -0.0002
     12 C         144.8610  140.7074  156.7644 C.2     1  UNL1       -0.0172
     13 C         143.5703  140.1938  157.3302 C.3     1  UNL1        0.1037
     14 C         142.8354  140.9917  158.3661 C.2     1  UNL1        0.2178
     15 N         141.5513  140.7426  159.1004 N.2     1  UNL1       -0.0346
     16 N         141.4866  140.9117  162.8516 N.pl3   1  UNL1       -0.3071
     17 C         142.6192  141.7481  163.3690 C.3     1  UNL1        0.0921
     18 C         143.8752  141.0898  163.8579 C.3     1  UNL1        0.0369
     19 C         143.9987  139.5951  163.8293 C.3     1  UNL1        0.0542
     20 N         145.2547  138.9369  164.3182 N.3     1  UNL1       -0.3221
     21 C         142.8661  138.7588  163.3118 C.3     1  UNL1        0.0369
     22 C         141.6100  139.4171  162.8230 C.3     1  UNL1        0.0921
     23 H         145.9129  139.6505  164.6311 H       1  UNL1        0.1188
     24 H         145.6730  138.3974  163.5603 H       1  UNL1        0.1188
     25 C         137.7435  138.2744  166.9336 C.3     1  UNL1        0.0310
     26 C         138.4888  139.5101  166.5242 C.ar    1  UNL1       -0.0222
     27 C         139.3206  140.2516  167.5284 C.ar    1  UNL1       -0.0085
     28 C         140.0658  141.4873  167.1189 C.ar    1  UNL1       -0.0222
     29 C         140.8976  142.2288  168.1231 C.3     1  UNL1        0.0310
     30 C         139.9793  141.9815  165.7053 C.ar    1  UNL1       -0.0042
     31 C         139.1475  141.2400  164.7012 C.ar    1  UNL1        0.0021
     32 C         138.4022  140.0043  165.1106 C.ar    1  UNL1       -0.0042
@<TRIPOS>BOND
     1    25    26    1
     2    26    27   ar
     3    27    28   ar
     4    28    29    1
     5    28    30   ar
     6    30    31   ar
     7    31     1    1
     8     1     2   ar
     9     2     3   ar
    10     3     4   ar
    11     4     5   ar
    12     5     7    1
    13     7     8    2
    14     8     9    1
    15     9    10    2
    16    10    11    1
    17    11    12    2
    18    12    13    1
    19    13    14    1
    20    14    15    2
    21     5     6   ar
    22     6    16    1
    23    16    17    1
    24    17    18    1
    25    18    19    1
    26    19    20    1
    27    19    21    1
    28    21    22    1
    29    31    32   ar
    30    32    26   ar
    31     6     1   ar
    32    22    16    1
    33    15     7    1
    34    14     9    1
    35    20    23    1
    36    20    24    1
@<TRIPOS>MOLECULE
*****
 32 36 0 0 0
SMALL
GASTEIGER

@<TRIPOS>ATOM
      1 C         139.5730  142.3285  162.0479 C.ar    1  UNL1        0.0327
      2 C         138.0755  142.3893  162.1071 C.ar    1  UNL1        0.1001
      3 N         137.3681  142.1949  163.4154 N.ar    1  UNL1       -0.2420
      4 C         138.1584  141.9398  164.6646 C.ar    1  UNL1        0.1078
      5 C         139.6559  141.8790  164.6054 C.ar    1  UNL1        0.1207
      6 C         140.3633  142.0733  163.2971 C.ar    1  UNL1        0.0583
      7 C         140.4461  141.6238  165.8546 C.2     1  UNL1        0.3780
      8 N         141.3774  142.5920  166.5220 N.2     1  UNL1       -0.0308
      9 C         141.9507  141.9222  167.7356 C.2     1  UNL1        0.2321
     10 C         142.9235  142.3923  168.7760 C.2     1  UNL1        0.0498
     11 C         143.3194  141.4803  169.8991 C.2     1  UNL1       -0.0002
     12 C         142.7424  140.0982  169.9818 C.2     1  UNL1       -0.0172
     13 C         141.7695  139.6281  168.9414 C.3     1  UNL1        0.1037
     14 C         141.3737  140.5401  167.8183 C.2     1  UNL1        0.2178
     15 N         140.4439  140.3557  166.6558 N.2     1  UNL1       -0.0346
     16 N         141.8609  142.0125  163.2378 N.pl3   1  UNL1       -0.3071
     17 C         142.5537  140.6872  163.1207 C.3     1  UNL1        0.0921
     18 C         144.0512  140.6264  163.0615 C.3     1  UNL1        0.0369
     19 C         144.8561  141.8909  163.1194 C.3     1  UNL1        0.0542
     20 N         146.3537  141.8300  163.0601 N.3     1  UNL1       -0.3221
     21 C         144.1634  143.2162  163.2365 C.3     1  UNL1        0.0369
     22 C         142.6657  143.2770  163.2957 C.3     1  UNL1        0.0921
     23 H         146.6516  140.8577  162.9819 H       1  UNL1        0.1188
     24 H         146.7444  142.2381  163.9094 H       1  UNL1        0.1188
     25 C         141.5664  145.4876  158.4359 C.3     1  UNL1        0.0310
     26 C         141.2771  144.1024  158.9335 C.ar    1  UNL1       -0.0222
     27 C         141.6953  142.9116  158.1227 C.ar    1  UNL1       -0.0085
     28 C         141.4060  141.5264  158.6204 C.ar    1  UNL1       -0.0222
     29 C         141.8240  140.3357  157.8097 C.3     1  UNL1        0.0310
     30 C         140.6985  141.3321  159.9288 C.ar    1  UNL1       -0.0042
     31 C         140.2805  142.5228  160.7395 C.ar    1  UNL1        0.0021
     32 C         140.5698  143.9080  160.2418 C.ar    1  UNL1       -0.0042
@<TRIPOS>BOND
     1    25    26    1
     2    26    27   ar
     3    27    28   ar
     4    28    29    1
     5    28    30   ar
     6    30    31   ar
     7    31     1    1
     8     1     2   ar
     9     2     3   ar
    10     3     4   ar
    11     4     5   ar
    12     5     7    1
    13     7     8    2
    14     8     9    1
    15     9    10    2
    16    10    11    1
    17    11    12    2
    18    12    13    1
    19    13    14    1
    20    14    15    2
    21     5     6   ar
    22     6    16    1
    23    16    17    1
    24    17    18    1
    25    18    19    1
    26    19    20    1
    27    19    21    1
    28    21    22    1
    29    31    32   ar
    30    32    26   ar
    31     6     1   ar
    32    22    16    1
    33    15     7    1
    34    14     9    1
    35    20    23    1
    36    20    24    1
@<TRIPOS>MOLECULE
*****
 32 36 0 0 0
SMALL
GASTEIGER

@<TRIPOS>ATOM
      1 C         139.5654  142.3458  162.0367 C.ar    1  UNL1        0.0327
      2 C         138.0680  142.4104  162.0966 C.ar    1  UNL1        0.1001
      3 N         137.3608  142.2174  163.4053 N.ar    1  UNL1       -0.2420
      4 C         138.1510  141.9598  164.6540 C.ar    1  UNL1        0.1078
      5 C         139.6484  141.8951  164.5940 C.ar    1  UNL1        0.1207
      6 C         140.3556  142.0881  163.2854 C.ar    1  UNL1        0.0583
      7 C         140.4386  141.6375  165.8427 C.2     1  UNL1        0.3780
      8 N         141.3647  142.6066  166.5158 N.2     1  UNL1       -0.0308
      9 C         141.9399  141.9336  167.7266 C.2     1  UNL1        0.2321
     10 C         142.9095  142.4030  168.7704 C.2     1  UNL1        0.0498
     11 C         143.3084  141.4873  169.8894 C.2     1  UNL1       -0.0002
     12 C         142.7378  140.1021  169.9647 C.2     1  UNL1       -0.0172
     13 C         141.7682  139.6327  168.9209 C.3     1  UNL1        0.1037
     14 C         141.3692  140.5484  167.8019 C.2     1  UNL1        0.2178
     15 N         140.4414  140.3654  166.6376 N.2     1  UNL1       -0.0346
     16 N         141.8530  142.0235  163.2254 N.pl3   1  UNL1       -0.3071
     17 C         142.5429  140.6955  163.1230 C.3     1  UNL1        0.0921
     18 C         144.0403  140.6308  163.0630 C.3     1  UNL1        0.0369
     19 C         144.8479  141.8942  163.1054 C.3     1  UNL1        0.0542
     20 N         146.3452  141.8295  163.0454 N.3     1  UNL1       -0.3221
     21 C         144.1580  143.2222  163.2078 C.3     1  UNL1        0.0369
     22 C         142.6606  143.2868  163.2678 C.3     1  UNL1        0.0921
     23 H         146.6411  140.8556  162.9782 H       1  UNL1        0.1188
     24 H         146.7377  142.2465  163.8895 H       1  UNL1        0.1188
     25 C         141.8537  140.3482  157.8208 C.3     1  UNL1        0.0310
     26 C         141.4168  141.5400  158.6201 C.ar    1  UNL1       -0.0222
     27 C         141.6872  142.9247  158.1107 C.ar    1  UNL1       -0.0085
     28 C         141.2503  144.1165  158.9100 C.ar    1  UNL1       -0.0222
     29 C         141.5207  145.5012  158.4007 C.3     1  UNL1        0.0310
     30 C         140.5431  143.9235  160.2187 C.ar    1  UNL1       -0.0042
     31 C         140.2727  142.5388  160.7280 C.ar    1  UNL1        0.0021
     32 C         140.7096  141.3470  159.9287 C.ar    1  UNL1       -0.0042
@<TRIPOS>BOND
     1    25    26    1
     2    26    27   ar
     3    27    28   ar
     4    28    29    1
     5    28    30   ar
     6    30    31   ar
     7    31     1    1
     8     1     2   ar
     9     2     3   ar
    10     3     4   ar
    11     4     5   ar
    12     5     7    1
    13     7     8    2
    14     8     9    1
    15     9    10    2
    16    10    11    1
    17    11    12    2
    18    12    13    1
    19    13    14    1
    20    14    15    2
    21     5     6   ar
    22     6    16    1
    23    16    17    1
    24    17    18    1
    25    18    19    1
    26    19    20    1
    27    19    21    1
    28    21    22    1
    29    31    32   ar
    30    32    26   ar
    31     6     1   ar
    32    22    16    1
    33    15     7    1
    34    14     9    1
    35    20    23    1
    36    20    24    1
@<TRIPOS>MOLECULE
*****
 32 36 0 0 0
SMALL
GASTEIGER

@<TRIPOS>ATOM
      1 C         139.9345  139.3792  162.4152 C.ar    1  UNL1        0.0327
      2 C         139.1656  138.1099  162.6330 C.ar    1  UNL1        0.1001
      3 N         138.8870  137.6317  164.0272 N.ar    1  UNL1       -0.2420
      4 C         139.3773  138.4229  165.2035 C.ar    1  UNL1        0.1078
      5 C         140.1461  139.6923  164.9856 C.ar    1  UNL1        0.1207
      6 C         140.4247  140.1704  163.5915 C.ar    1  UNL1        0.0583
      7 C         140.6364  140.4835  166.1619 C.2     1  UNL1        0.3780
      8 N         139.8567  141.5217  166.9129 N.2     1  UNL1       -0.0308
      9 C         140.7309  142.0552  168.0089 C.2     1  UNL1        0.2321
     10 C         140.4954  143.0947  169.0643 C.2     1  UNL1        0.0498
     11 C         141.5800  143.4256  170.0462 C.2     1  UNL1       -0.0002
     12 C         142.9001  142.7171  169.9725 C.2     1  UNL1       -0.0172
     13 C         143.1355  141.6777  168.9170 C.3     1  UNL1        0.1037
     14 C         142.0509  141.3467  167.9352 C.2     1  UNL1        0.2178
     15 N         141.9925  140.3753  166.7937 N.2     1  UNL1       -0.0346
     16 N         141.1936  141.4399  163.3735 N.pl3   1  UNL1       -0.3071
     17 C         140.4722  142.7539  163.3206 C.3     1  UNL1        0.0921
     18 C         141.2411  144.0233  163.1027 C.3     1  UNL1        0.0369
     19 C         142.7313  143.9787  162.9377 C.3     1  UNL1        0.0542
     20 N         143.5002  145.2481  162.7198 N.3     1  UNL1       -0.3221
     21 C         143.4527  142.6646  162.9907 C.3     1  UNL1        0.0369
     22 C         142.6838  141.3952  163.2086 C.3     1  UNL1        0.0921
     23 H         142.8558  146.0387  162.7118 H       1  UNL1        0.1188
     24 H         143.9901  145.1998  161.8265 H       1  UNL1        0.1188
     25 C         138.6121  142.2591  158.2972 C.3     1  UNL1        0.0310
     26 C         139.5519  141.2974  158.9620 C.ar    1  UNL1       -0.0222
     27 C         140.7703  140.8140  158.2326 C.ar    1  UNL1       -0.0085
     28 C         141.7100  139.8523  158.8975 C.ar    1  UNL1       -0.0222
     29 C         142.9284  139.3689  158.1682 C.3     1  UNL1        0.0310
     30 C         141.4314  139.3741  160.2917 C.ar    1  UNL1       -0.0042
     31 C         140.2131  139.8575  161.0210 C.ar    1  UNL1        0.0021
     32 C         139.2733  140.8192  160.3561 C.ar    1  UNL1       -0.0042
@<TRIPOS>BOND
     1    25    26    1
     2    26    27   ar
     3    27    28   ar
     4    28    29    1
     5    28    30   ar
     6    30    31   ar
     7    31     1    1
     8     1     2   ar
     9     2     3   ar
    10     3     4   ar
    11     4     5   ar
    12     5     7    1
    13     7     8    2
    14     8     9    1
    15     9    10    2
    16    10    11    1
    17    11    12    2
    18    12    13    1
    19    13    14    1
    20    14    15    2
    21     5     6   ar
    22     6    16    1
    23    16    17    1
    24    17    18    1
    25    18    19    1
    26    19    20    1
    27    19    21    1
    28    21    22    1
    29    31    32   ar
    30    32    26   ar
    31     6     1   ar
    32    22    16    1
    33    15     7    1
    34    14     9    1
    35    20    23    1
    36    20    24    1
@<TRIPOS>MOLECULE
*****
 32 36 0 0 0
SMALL
GASTEIGER

@<TRIPOS>ATOM
      1 C         140.0011  139.3972  162.2759 C.ar    1  UNL1        0.0327
      2 C         139.2446  138.1145  162.4559 C.ar    1  UNL1        0.1001
      3 N         138.9578  137.6002  163.8354 N.ar    1  UNL1       -0.2420
      4 C         139.4274  138.3685  165.0350 C.ar    1  UNL1        0.1078
      5 C         140.1840  139.6512  164.8551 C.ar    1  UNL1        0.1207
      6 C         140.4708  140.1655  163.4755 C.ar    1  UNL1        0.0583
      7 C         140.6536  140.4195  166.0547 C.2     1  UNL1        0.3780
      8 N         141.9487  140.2126  166.7826 N.2     1  UNL1       -0.0308
      9 C         142.0062  141.1948  167.9148 C.2     1  UNL1        0.2321
     10 C         143.0428  141.4532  168.9678 C.2     1  UNL1        0.0498
     11 C         142.8197  142.5256  169.9925 C.2     1  UNL1       -0.0002
     12 C         141.5601  143.3396  169.9643 C.2     1  UNL1       -0.0172
     13 C         140.5236  143.0813  168.9114 C.3     1  UNL1        0.1037
     14 C         140.7466  142.0089  167.8866 C.2     1  UNL1        0.2178
     15 N         139.9107  141.5297  166.7370 N.2     1  UNL1       -0.0346
     16 N         141.2273  141.4482  163.2956 N.pl3   1  UNL1       -0.3071
     17 C         142.7246  141.4297  163.2065 C.3     1  UNL1        0.0921
     18 C         143.4811  142.7123  163.0266 C.3     1  UNL1        0.0369
     19 C         142.7405  144.0136  162.9356 C.3     1  UNL1        0.0542
     20 N         143.4970  145.2962  162.7556 N.3     1  UNL1       -0.3221
     21 C         141.2432  144.0321  163.0246 C.3     1  UNL1        0.0369
     22 C         140.4867  142.7494  163.2046 C.3     1  UNL1        0.0921
     23 H         144.4968  145.0984  162.7156 H       1  UNL1        0.1188
     24 H         143.3046  145.9176  163.5413 H       1  UNL1        0.1188
     25 C         143.1153  139.6474  158.1239 C.3     1  UNL1        0.0310
     26 C         141.8451  140.0366  158.8204 C.ar    1  UNL1       -0.0222
     27 C         140.8617  140.9403  158.1373 C.ar    1  UNL1       -0.0085
     28 C         139.5915  141.3295  158.8337 C.ar    1  UNL1       -0.0222
     29 C         138.6082  142.2331  158.1507 C.3     1  UNL1        0.0310
     30 C         139.3047  140.8152  160.2133 C.ar    1  UNL1       -0.0042
     31 C         140.2880  139.9116  160.8964 C.ar    1  UNL1        0.0021
     32 C         141.5582  139.5223  160.1999 C.ar    1  UNL1       -0.0042
@<TRIPOS>BOND
     1    25    26    1
     2    26    27   ar
     3    27    28   ar
     4    28    29    1
     5    28    30   ar
     6    30    31   ar
     7    31     1    1
     8     1     2   ar
     9     2     3   ar
    10     3     4   ar
    11     4     5   ar
    12     5     7    1
    13     7     8    2
    14     8     9    1
    15     9    10    2
    16    10    11    1
    17    11    12    2
    18    12    13    1
    19    13    14    1
    20    14    15    2
    21     5     6   ar
    22     6    16    1
    23    16    17    1
    24    17    18    1
    25    18    19    1
    26    19    20    1
    27    19    21    1
    28    21    22    1
    29    31    32   ar
    30    32    26   ar
    31     6     1   ar
    32    22    16    1
    33    15     7    1
    34    14     9    1
    35    20    23    1
    36    20    24    1
