@<TRIPOS>MOLECULE
*****
 37 41 0 0 0
SMALL
GASTEIGER

@<TRIPOS>ATOM
      1 N         143.0716  137.0184  158.9936 N.am    1  UNL1       -0.3018
      2 C         142.5520  137.6739  157.7485 C.2     1  UNL1        0.2425
      3 O         141.8708  139.0077  157.8313 O.2     1  UNL1       -0.2733
      4 H         143.5187  136.1430  158.9392 H       1  UNL1        0.1495
      5 N         142.6811  138.6562  162.1997 N.3     1  UNL1       -0.2711
      6 C         141.7423  138.0770  161.1833 C.3     1  UNL1        0.0933
      7 C         142.9099  137.6968  160.3216 C.3     1  UNL1        0.1035
      8 C         143.8486  138.2760  161.3381 C.3     1  UNL1        0.0933
      9 C         142.1960  140.6913  166.1838 C.3     1  UNL1        0.0301
     10 C         142.4366  141.5079  164.9487 C.3     1  UNL1        0.0063
     11 C         142.5983  140.8296  163.6208 C.3     1  UNL1        0.0163
     12 C         142.5194  139.3346  163.5278 C.3     1  UNL1        0.0576
     13 C         142.2788  138.5179  164.7628 C.3     1  UNL1        0.0163
     14 C         142.1171  139.1963  166.0908 C.3     1  UNL1        0.0063
     15 C         140.4476  143.8743  170.0169 C.3     1  UNL1        0.0594
     16 C         141.2307  142.8329  169.2737 C.ar    1  UNL1        0.0884
     17 N         142.3401  141.9951  169.8369 N.ar    1  UNL1       -0.2415
     18 C         142.8368  141.0909  168.7480 C.ar    1  UNL1        0.1012
     19 C         142.0343  141.3698  167.5118 C.ar    1  UNL1        0.0271
     20 S         141.0416  142.4465  167.8367 S.2     1  UNL1       -0.0751
     21 C         142.7137  136.9955  156.4204 C.3     1  UNL1        0.1747
     22 N         142.0413  135.6794  156.1637 N.pl3   1  UNL1       -0.3093
     23 H         141.1299  135.6565  155.7921 H       1  UNL1        0.1487
     24 C         142.7575  134.3983  156.4733 C.ar    1  UNL1        0.1500
     25 N         143.9640  134.2529  157.3526 N.ar    1  UNL1       -0.1544
     26 N         144.3450  132.8024  157.3806 N.ar    1  UNL1       -0.2476
     27 C         145.4952  132.2074  158.1376 C.3     1  UNL1        0.1537
     28 C         143.3741  132.0513  156.5185 C.ar    1  UNL1        0.0807
     29 C         143.2566  130.5967  156.1718 C.ar    1  UNL1        0.0188
     30 C         142.1579  130.1284  155.2642 C.ar    1  UNL1        0.0054
     31 C         141.1768  131.1148  154.7035 C.ar    1  UNL1        0.0716
     32 C         141.2942  132.5694  155.0503 C.ar    1  UNL1        0.0082
     33 C         142.3929  133.0376  155.9578 C.ar    1  UNL1        0.0503
     34 C         140.0781  130.6464  153.7959 C.3     1  UNL1        0.4186
     35 F         138.9794  130.1781  152.8884 F       1  UNL1       -0.1659
     36 F         141.0469  130.5897  152.6522 F       1  UNL1       -0.1659
     37 F         139.1092  130.7031  154.9396 F       1  UNL1       -0.1659
@<TRIPOS>BOND
     1    15    16    1
     2    16    17   ar
     3    17    18   ar
     4    18    19   ar
     5     9    19    1
     6     9    10    1
     7    10    11    1
     8    11    12    1
     9    12     5    1
    10     5     6    1
    11     6     7    1
    12     7     1    1
    13     1     2   am
    14     2     3    2
    15     2    21    1
    16    21    22    1
    17    22    24    1
    18    24    25   ar
    19    25    26   ar
    20    26    27    1
    21    26    28   ar
    22    28    29   ar
    23    29    30   ar
    24    30    31   ar
    25    31    34    1
    26    34    35    1
    27    34    36    1
    28    34    37    1
    29    31    32   ar
    30    32    33   ar
    31     7     8    1
    32    12    13    1
    33    13    14    1
    34    19    20   ar
    35    20    16   ar
    36    14     9    1
    37     8     5    1
    38    33    24   ar
    39    33    28   ar
    40     1     4    1
    41    22    23    1
@<TRIPOS>MOLECULE
*****
 37 41 0 0 0
SMALL
GASTEIGER

@<TRIPOS>ATOM
      1 N         138.9085  142.3374  156.9151 N.am    1  UNL1       -0.3018
      2 C         138.5781  141.9659  158.3303 C.2     1  UNL1        0.2425
      3 O         138.3376  143.0387  159.3508 O.2     1  UNL1       -0.2733
      4 H         139.0663  141.6333  156.2454 H       1  UNL1        0.1495
      5 N         139.1259  145.8244  155.9623 N.3     1  UNL1       -0.2711
      6 C         139.8910  144.9290  156.8913 C.3     1  UNL1        0.0933
      7 C         138.9985  143.7818  156.5204 C.3     1  UNL1        0.1035
      8 C         138.2335  144.6772  155.5916 C.3     1  UNL1        0.0933
      9 C         139.3959  150.1575  154.7783 C.3     1  UNL1        0.0301
     10 C         138.6376  149.7625  156.0109 C.3     1  UNL1        0.0063
     11 C         138.5476  148.3183  156.4055 C.3     1  UNL1        0.0163
     12 C         139.2159  147.2688  155.5676 C.3     1  UNL1        0.0576
     13 C         139.9741  147.6636  154.3351 C.3     1  UNL1        0.0163
     14 C         140.0641  149.1080  153.9404 C.3     1  UNL1        0.0063
     15 C         138.4132  155.3321  154.4063 C.3     1  UNL1        0.0594
     16 C         139.0341  153.9804  154.2127 C.ar    1  UNL1        0.0884
     17 N         140.2140  153.6687  153.3404 N.ar    1  UNL1       -0.2415
     18 C         140.4931  152.1987  153.4461 C.ar    1  UNL1        0.1012
     19 C         139.4858  151.6018  154.3837 C.ar    1  UNL1        0.0271
     20 S         138.5840  152.7030  154.8575 S.2     1  UNL1       -0.0751
     21 C         138.4881  140.5216  158.7250 C.3     1  UNL1        0.1747
     22 N         138.4847  140.1392  160.1755 N.pl3   1  UNL1       -0.3093
     23 H         137.7436  140.4237  160.7578 H       1  UNL1        0.1487
     24 C         139.6104  139.3235  160.7387 C.ar    1  UNL1        0.1500
     25 N         140.8440  138.8950  160.0007 N.ar    1  UNL1       -0.1544
     26 N         141.6961  138.0997  160.9447 N.ar    1  UNL1       -0.2476
     27 C         143.0224  137.4768  160.6237 C.3     1  UNL1        0.1537
     28 C         140.9893  138.0366  162.2663 C.ar    1  UNL1        0.0807
     29 C         141.3528  137.3882  163.5690 C.ar    1  UNL1        0.0188
     30 C         140.4274  137.4961  164.7445 C.ar    1  UNL1        0.0054
     31 C         139.1383  138.2525  164.6172 C.ar    1  UNL1        0.0716
     32 C         138.7747  138.9009  163.3144 C.ar    1  UNL1        0.0082
     33 C         139.7002  138.7930  162.1389 C.ar    1  UNL1        0.0503
     34 C         138.2128  138.3604  165.7928 C.3     1  UNL1        0.4186
     35 F         137.2873  138.4683  166.9683 F       1  UNL1       -0.1659
     36 F         138.1020  139.8396  165.5698 F       1  UNL1       -0.1659
     37 F         138.3236  136.8813  166.0157 F       1  UNL1       -0.1659
@<TRIPOS>BOND
     1    15    16    1
     2    16    17   ar
     3    17    18   ar
     4    18    19   ar
     5     9    19    1
     6     9    10    1
     7    10    11    1
     8    11    12    1
     9    12     5    1
    10     5     6    1
    11     6     7    1
    12     7     1    1
    13     1     2   am
    14     2     3    2
    15     2    21    1
    16    21    22    1
    17    22    24    1
    18    24    25   ar
    19    25    26   ar
    20    26    27    1
    21    26    28   ar
    22    28    29   ar
    23    29    30   ar
    24    30    31   ar
    25    31    34    1
    26    34    35    1
    27    34    36    1
    28    34    37    1
    29    31    32   ar
    30    32    33   ar
    31     7     8    1
    32    12    13    1
    33    13    14    1
    34    19    20   ar
    35    20    16   ar
    36    14     9    1
    37     8     5    1
    38    33    24   ar
    39    33    28   ar
    40     1     4    1
    41    22    23    1
@<TRIPOS>MOLECULE
*****
 37 41 0 0 0
SMALL
GASTEIGER

@<TRIPOS>ATOM
      1 N         143.0386  137.6268  158.7156 N.am    1  UNL1       -0.3018
      2 C         143.1364  138.6246  157.5999 C.2     1  UNL1        0.2425
      3 O         143.1766  140.0922  157.9075 O.2     1  UNL1       -0.2733
      4 H         143.0123  136.6636  158.5136 H       1  UNL1        0.1495
      5 N         142.8995  138.7610  162.1519 N.3     1  UNL1       -0.2711
      6 C         143.9040  138.0211  161.3190 C.3     1  UNL1        0.0933
      7 C         142.9810  138.0966  160.1389 C.3     1  UNL1        0.1035
      8 C         141.9767  138.8365  160.9718 C.3     1  UNL1        0.0933
      9 C         142.7266  140.1703  166.4220 C.3     1  UNL1        0.0301
     10 C         143.1544  141.1141  165.3374 C.3     1  UNL1        0.0063
     11 C         143.2121  140.6443  163.9141 C.3     1  UNL1        0.0163
     12 C         142.8419  139.2308  163.5753 C.3     1  UNL1        0.0576
     13 C         142.4141  138.2870  164.6598 C.3     1  UNL1        0.0163
     14 C         142.3564  138.7568  166.0832 C.3     1  UNL1        0.0063
     15 C         142.8790  143.2622  170.6996 C.3     1  UNL1        0.0594
     16 C         142.7390  142.0614  169.8115 C.ar    1  UNL1        0.0884
     17 N         142.4216  140.6656  170.2597 N.ar    1  UNL1       -0.2415
     18 C         142.3783  139.7872  169.0445 C.ar    1  UNL1        0.1012
     19 C         142.6690  140.6402  167.8453 C.ar    1  UNL1        0.0271
     20 S         142.8919  142.0458  168.3194 S.2     1  UNL1       -0.0751
     21 C         143.1941  138.1548  156.1765 C.3     1  UNL1        0.1747
     22 N         143.9523  136.9082  155.8283 N.pl3   1  UNL1       -0.3093
     23 H         144.8792  136.7927  156.1393 H       1  UNL1        0.1487
     24 C         143.2981  135.8375  155.0063 C.ar    1  UNL1        0.1500
     25 N         142.4734  136.0537  153.7721 N.ar    1  UNL1       -0.1544
     26 N         142.0194  134.7125  153.2772 N.ar    1  UNL1       -0.2476
     27 C         141.1703  134.4605  152.0666 C.3     1  UNL1        0.1537
     28 C         142.5634  133.6673  154.2055 C.ar    1  UNL1        0.0807
     29 C         142.4413  132.1724  154.2158 C.ar    1  UNL1        0.0188
     30 C         143.1095  131.3727  155.2947 C.ar    1  UNL1        0.0054
     31 C         143.8998  132.0681  156.3633 C.ar    1  UNL1        0.0716
     32 C         144.0219  133.5630  156.3530 C.ar    1  UNL1        0.0082
     33 C         143.3537  134.3626  155.2741 C.ar    1  UNL1        0.0503
     34 C         144.5680  131.2684  157.4423 C.3     1  UNL1        0.4186
     35 F         145.2362  130.4687  158.5211 F       1  UNL1       -0.1659
     36 F         143.4595  130.2597  157.3813 F       1  UNL1       -0.1659
     37 F         145.6766  132.2770  157.5032 F       1  UNL1       -0.1659
@<TRIPOS>BOND
     1    15    16    1
     2    16    17   ar
     3    17    18   ar
     4    18    19   ar
     5     9    19    1
     6     9    10    1
     7    10    11    1
     8    11    12    1
     9    12     5    1
    10     5     6    1
    11     6     7    1
    12     7     1    1
    13     1     2   am
    14     2     3    2
    15     2    21    1
    16    21    22    1
    17    22    24    1
    18    24    25   ar
    19    25    26   ar
    20    26    27    1
    21    26    28   ar
    22    28    29   ar
    23    29    30   ar
    24    30    31   ar
    25    31    34    1
    26    34    35    1
    27    34    36    1
    28    34    37    1
    29    31    32   ar
    30    32    33   ar
    31     7     8    1
    32    12    13    1
    33    13    14    1
    34    19    20   ar
    35    20    16   ar
    36    14     9    1
    37     8     5    1
    38    33    24   ar
    39    33    28   ar
    40     1     4    1
    41    22    23    1
@<TRIPOS>MOLECULE
*****
 37 41 0 0 0
SMALL
GASTEIGER

@<TRIPOS>ATOM
      1 N         137.4908  140.1558  157.8671 N.am    1  UNL1       -0.3018
      2 C         137.2484  141.4677  157.1815 C.2     1  UNL1        0.2425
      3 O         137.4234  142.7520  157.9364 O.2     1  UNL1       -0.2733
      4 H         137.3759  139.3128  157.3716 H       1  UNL1        0.1495
      5 N         138.4984  140.0892  161.3448 N.3     1  UNL1       -0.2711
      6 C         139.1392  140.5330  160.0632 C.3     1  UNL1        0.0933
      7 C         137.9081  140.1282  159.3076 C.3     1  UNL1        0.1035
      8 C         137.2674  139.6845  160.5892 C.3     1  UNL1        0.0933
      9 C         139.7504  140.0065  165.6663 C.3     1  UNL1        0.0301
     10 C         138.8643  141.1073  165.1631 C.3     1  UNL1        0.0063
     11 C         138.4470  141.1348  163.7226 C.3     1  UNL1        0.0163
     12 C         138.9157  140.0616  162.7853 C.3     1  UNL1        0.0576
     13 C         139.8018  138.9609  163.2885 C.3     1  UNL1        0.0163
     14 C         140.2191  138.9333  164.7290 C.3     1  UNL1        0.0063
     15 C         142.7120  140.0217  170.0377 C.3     1  UNL1        0.0594
     16 C         141.5290  139.9860  169.1162 C.ar    1  UNL1        0.0884
     17 N         140.0908  139.8875  169.5310 N.ar    1  UNL1       -0.2415
     18 C         139.2495  139.8832  168.2892 C.ar    1  UNL1        0.1012
     19 C         140.1676  139.9790  167.1068 C.ar    1  UNL1        0.0271
     20 S         141.5765  140.0426  167.6180 S.2     1  UNL1       -0.0751
     21 C         136.8311  141.4953  155.7410 C.3     1  UNL1        0.1747
     22 N         135.3856  141.6741  155.3822 N.pl3   1  UNL1       -0.3093
     23 H         135.1271  142.3244  154.6897 H       1  UNL1        0.1487
     24 C         134.3340  140.8622  156.0786 C.ar    1  UNL1        0.1500
     25 N         134.5805  139.7726  157.0796 N.ar    1  UNL1       -0.1544
     26 N         133.2501  139.2344  157.5159 N.ar    1  UNL1       -0.2476
     27 C         133.0275  138.1327  158.5092 C.3     1  UNL1        0.1537
     28 C         132.1814  139.9913  156.7845 C.ar    1  UNL1        0.0807
     29 C         130.6848  139.8944  156.8126 C.ar    1  UNL1        0.0188
     30 C         129.8581  140.8036  155.9524 C.ar    1  UNL1        0.0054
     31 C         130.5280  141.8096  155.0641 C.ar    1  UNL1        0.0716
     32 C         132.0246  141.9065  155.0360 C.ar    1  UNL1        0.0082
     33 C         132.8513  140.9974  155.8962 C.ar    1  UNL1        0.0503
     34 C         129.7012  142.7188  154.2039 C.3     1  UNL1        0.4186
     35 F         128.8745  143.6279  153.3437 F       1  UNL1       -0.1659
     36 F         130.0559  143.8777  155.0878 F       1  UNL1       -0.1659
     37 F         129.3466  141.5600  153.3200 F       1  UNL1       -0.1659
@<TRIPOS>BOND
     1    15    16    1
     2    16    17   ar
     3    17    18   ar
     4    18    19   ar
     5     9    19    1
     6     9    10    1
     7    10    11    1
     8    11    12    1
     9    12     5    1
    10     5     6    1
    11     6     7    1
    12     7     1    1
    13     1     2   am
    14     2     3    2
    15     2    21    1
    16    21    22    1
    17    22    24    1
    18    24    25   ar
    19    25    26   ar
    20    26    27    1
    21    26    28   ar
    22    28    29   ar
    23    29    30   ar
    24    30    31   ar
    25    31    34    1
    26    34    35    1
    27    34    36    1
    28    34    37    1
    29    31    32   ar
    30    32    33   ar
    31     7     8    1
    32    12    13    1
    33    13    14    1
    34    19    20   ar
    35    20    16   ar
    36    14     9    1
    37     8     5    1
    38    33    24   ar
    39    33    28   ar
    40     1     4    1
    41    22    23    1
@<TRIPOS>MOLECULE
*****
 37 41 0 0 0
SMALL
GASTEIGER

@<TRIPOS>ATOM
      1 N         138.8544  139.3677  159.6846 N.am    1  UNL1       -0.3018
      2 C         138.1731  139.3010  161.0192 C.2     1  UNL1        0.2425
      3 O         137.6053  140.5456  161.6346 O.2     1  UNL1       -0.2733
      4 H         139.2271  138.5508  159.2808 H       1  UNL1        0.1495
      5 N         139.1287  142.5337  157.9481 N.3     1  UNL1       -0.2711
      6 C         138.1017  141.8969  158.8369 C.3     1  UNL1        0.0933
      7 C         138.9681  140.6791  158.9653 C.3     1  UNL1        0.1035
      8 C         139.9950  141.3159  158.0766 C.3     1  UNL1        0.0933
      9 C         139.4696  146.4678  155.7902 C.3     1  UNL1        0.0301
     10 C         138.6529  145.3567  155.1998 C.3     1  UNL1        0.0063
     11 C         138.5393  144.0455  155.9191 C.3     1  UNL1        0.0163
     12 C         139.2423  143.8451  157.2288 C.3     1  UNL1        0.0576
     13 C         140.0591  144.9561  157.8193 C.3     1  UNL1        0.0163
     14 C         140.1727  146.2674  157.1000 C.3     1  UNL1        0.0063
     15 C         138.9321  151.5672  154.5300 C.3     1  UNL1        0.0594
     16 C         139.3361  150.1231  154.4916 C.ar    1  UNL1        0.0884
     17 N         140.1796  149.4712  153.4363 N.ar    1  UNL1       -0.2415
     18 C         140.3323  148.0226  153.7943 C.ar    1  UNL1        0.1012
     19 C         139.5832  147.7791  155.0709 C.ar    1  UNL1        0.0271
     20 S         138.9675  149.0774  155.5018 S.2     1  UNL1       -0.0751
     21 C         138.0594  137.9896  161.7386 C.3     1  UNL1        0.1747
     22 N         138.8676  137.7414  162.9777 N.pl3   1  UNL1       -0.3093
     23 H         138.4211  137.4579  163.8080 H       1  UNL1        0.1487
     24 C         140.3561  137.9251  162.9516 C.ar    1  UNL1        0.1500
     25 N         141.2606  137.6306  161.7919 N.ar    1  UNL1       -0.1544
     26 N         142.6649  137.9590  162.2043 N.ar    1  UNL1       -0.2476
     27 C         143.8907  137.8152  161.3517 C.3     1  UNL1        0.1537
     28 C         142.6283  138.4565  163.6189 C.ar    1  UNL1        0.0807
     29 C         143.7099  138.9259  164.5461 C.ar    1  UNL1        0.0188
     30 C         143.3646  139.3743  165.9352 C.ar    1  UNL1        0.0054
     31 C         141.9376  139.3534  166.3971 C.ar    1  UNL1        0.0716
     32 C         140.8560  138.8840  165.4699 C.ar    1  UNL1        0.0082
     33 C         141.2013  138.4355  164.0808 C.ar    1  UNL1        0.0503
     34 C         141.5923  139.8018  167.7862 C.3     1  UNL1        0.4186
     35 F         141.2471  140.2502  169.1754 F       1  UNL1       -0.1659
     36 F         140.1829  140.0710  167.3491 F       1  UNL1       -0.1659
     37 F         143.0017  139.5326  168.2234 F       1  UNL1       -0.1659
@<TRIPOS>BOND
     1    15    16    1
     2    16    17   ar
     3    17    18   ar
     4    18    19   ar
     5     9    19    1
     6     9    10    1
     7    10    11    1
     8    11    12    1
     9    12     5    1
    10     5     6    1
    11     6     7    1
    12     7     1    1
    13     1     2   am
    14     2     3    2
    15     2    21    1
    16    21    22    1
    17    22    24    1
    18    24    25   ar
    19    25    26   ar
    20    26    27    1
    21    26    28   ar
    22    28    29   ar
    23    29    30   ar
    24    30    31   ar
    25    31    34    1
    26    34    35    1
    27    34    36    1
    28    34    37    1
    29    31    32   ar
    30    32    33   ar
    31     7     8    1
    32    12    13    1
    33    13    14    1
    34    19    20   ar
    35    20    16   ar
    36    14     9    1
    37     8     5    1
    38    33    24   ar
    39    33    28   ar
    40     1     4    1
    41    22    23    1
@<TRIPOS>MOLECULE
*****
 37 41 0 0 0
SMALL
GASTEIGER

@<TRIPOS>ATOM
      1 N         139.1389  143.0892  161.0408 N.am    1  UNL1       -0.3018
      2 C         138.1070  142.9013  162.1130 C.2     1  UNL1        0.2425
      3 O         137.5097  141.5459  162.3499 O.2     1  UNL1       -0.2733
      4 H         139.5309  143.9789  160.8853 H       1  UNL1        0.1495
      5 N         140.1886  140.2704  159.0242 N.3     1  UNL1       -0.2711
      6 C         140.8802  141.2326  159.9439 C.3     1  UNL1        0.0933
      7 C         139.5737  141.9217  160.2055 C.3     1  UNL1        0.1035
      8 C         138.8822  140.9595  159.2857 C.3     1  UNL1        0.0933
      9 C         141.4929  136.7677  156.5182 C.3     1  UNL1        0.0301
     10 C         140.1230  137.3513  156.3364 C.3     1  UNL1        0.0063
     11 C         139.6883  138.5188  157.1717 C.3     1  UNL1        0.0163
     12 C         140.6234  139.1029  158.1888 C.3     1  UNL1        0.0576
     13 C         141.9932  138.5193  158.3706 C.3     1  UNL1        0.0163
     14 C         142.4279  137.3517  157.5353 C.3     1  UNL1        0.0063
     15 C         143.5440  132.1279  155.0534 C.3     1  UNL1        0.0594
     16 C         142.8703  133.4674  155.0095 C.ar    1  UNL1        0.0884
     17 N         142.3225  134.1392  153.7853 N.ar    1  UNL1       -0.2415
     18 C         141.7398  135.4573  154.2015 C.ar    1  UNL1        0.1012
     19 C         141.9275  135.6002  155.6828 C.ar    1  UNL1        0.0271
     20 S         142.6262  134.3703  156.1822 S.2     1  UNL1       -0.0751
     21 C         137.6722  144.0689  162.9483 C.3     1  UNL1        0.1747
     22 N         138.4133  144.4073  164.2078 N.pl3   1  UNL1       -0.3093
     23 H         138.0517  145.0835  164.8252 H       1  UNL1        0.1487
     24 C         139.7055  143.7155  164.5266 C.ar    1  UNL1        0.1500
     25 N         141.0809  144.2754  164.3152 N.ar    1  UNL1       -0.1544
     26 N         142.0746  143.2481  164.7707 N.ar    1  UNL1       -0.2476
     27 C         143.5674  143.3906  164.7388 C.3     1  UNL1        0.1537
     28 C         141.3133  142.0534  165.2637 C.ar    1  UNL1        0.0807
     29 C         141.7641  140.7398  165.8304 C.ar    1  UNL1        0.0188
     30 C         140.7508  139.7151  166.2463 C.ar    1  UNL1        0.0054
     31 C         139.2866  140.0039  166.0955 C.ar    1  UNL1        0.0716
     32 C         138.8357  141.3175  165.5287 C.ar    1  UNL1        0.0082
     33 C         139.8491  142.3422  165.1128 C.ar    1  UNL1        0.0503
     34 C         138.2732  138.9791  166.5114 C.3     1  UNL1        0.4186
     35 F         137.2599  137.9543  166.9273 F       1  UNL1       -0.1659
     36 F         138.4467  139.3889  167.9439 F       1  UNL1       -0.1659
     37 F         138.0997  138.5694  165.0790 F       1  UNL1       -0.1659
@<TRIPOS>BOND
     1    15    16    1
     2    16    17   ar
     3    17    18   ar
     4    18    19   ar
     5     9    19    1
     6     9    10    1
     7    10    11    1
     8    11    12    1
     9    12     5    1
    10     5     6    1
    11     6     7    1
    12     7     1    1
    13     1     2   am
    14     2     3    2
    15     2    21    1
    16    21    22    1
    17    22    24    1
    18    24    25   ar
    19    25    26   ar
    20    26    27    1
    21    26    28   ar
    22    28    29   ar
    23    29    30   ar
    24    30    31   ar
    25    31    34    1
    26    34    35    1
    27    34    36    1
    28    34    37    1
    29    31    32   ar
    30    32    33   ar
    31     7     8    1
    32    12    13    1
    33    13    14    1
    34    19    20   ar
    35    20    16   ar
    36    14     9    1
    37     8     5    1
    38    33    24   ar
    39    33    28   ar
    40     1     4    1
    41    22    23    1
@<TRIPOS>MOLECULE
*****
 37 41 0 0 0
SMALL
GASTEIGER

@<TRIPOS>ATOM
      1 N         140.7817  139.4806  158.0521 N.am    1  UNL1       -0.3018
      2 C         139.9450  139.4996  159.2969 C.2     1  UNL1        0.2425
      3 O         139.5941  138.2135  159.9845 O.2     1  UNL1       -0.2733
      4 H         141.0121  140.3247  157.6009 H       1  UNL1        0.1495
      5 N         141.9544  136.3295  156.7068 N.3     1  UNL1       -0.2711
      6 C         142.5117  137.3524  157.6520 C.3     1  UNL1        0.0933
      7 C         141.2674  138.1754  157.4949 C.3     1  UNL1        0.1035
      8 C         140.7103  137.1525  156.5498 C.3     1  UNL1        0.0933
      9 C         143.4116  132.4139  155.0351 C.3     1  UNL1        0.0301
     10 C         142.2101  133.0841  154.4373 C.3     1  UNL1        0.0063
     11 C         141.7244  134.3892  154.9945 C.3     1  UNL1        0.0163
     12 C         142.4402  135.0243  156.1496 C.3     1  UNL1        0.0576
     13 C         143.6417  134.3543  156.7474 C.3     1  UNL1        0.0163
     14 C         144.1274  133.0491  156.1901 C.3     1  UNL1        0.0063
     15 C         145.6982  127.6731  154.6145 C.3     1  UNL1        0.0594
     16 C         144.9483  128.9296  154.2844 C.ar    1  UNL1        0.0884
     17 N         144.3409  129.2708  152.9560 N.ar    1  UNL1       -0.2415
     18 C         143.6913  130.6175  153.0755 C.ar    1  UNL1        0.1012
     19 C         143.8972  131.1088  154.4777 C.ar    1  UNL1        0.0271
     20 S         144.6741  130.0655  155.2249 S.2     1  UNL1       -0.0751
     21 C         139.4593  140.8048  159.8542 C.3     1  UNL1        0.1747
     22 N         138.6296  140.8245  161.1038 N.pl3   1  UNL1       -0.3093
     23 H         137.7372  140.4088  161.1087 H       1  UNL1        0.1487
     24 C         139.1597  141.4775  162.3458 C.ar    1  UNL1        0.1500
     25 N         139.8399  142.8124  162.4184 N.ar    1  UNL1       -0.1544
     26 N         140.2032  143.0702  163.8507 N.ar    1  UNL1       -0.2476
     27 C         140.8999  144.2895  164.3779 C.3     1  UNL1        0.1537
     28 C         139.7475  141.8946  164.6633 C.ar    1  UNL1        0.0807
     29 C         139.8365  141.5933  166.1300 C.ar    1  UNL1        0.0188
     30 C         139.2805  140.3076  166.6666 C.ar    1  UNL1        0.0054
     31 C         138.6356  139.3233  165.7365 C.ar    1  UNL1        0.0716
     32 C         138.5466  139.6246  164.2698 C.ar    1  UNL1        0.0082
     33 C         139.1026  140.9103  163.7332 C.ar    1  UNL1        0.0503
     34 C         138.0796  138.0376  166.2731 C.3     1  UNL1        0.4186
     35 F         137.5236  136.7519  166.8097 F       1  UNL1       -0.1659
     36 F         138.8553  137.2719  165.2426 F       1  UNL1       -0.1659
     37 F         137.3039  138.8032  167.3036 F       1  UNL1       -0.1659
@<TRIPOS>BOND
     1    15    16    1
     2    16    17   ar
     3    17    18   ar
     4    18    19   ar
     5     9    19    1
     6     9    10    1
     7    10    11    1
     8    11    12    1
     9    12     5    1
    10     5     6    1
    11     6     7    1
    12     7     1    1
    13     1     2   am
    14     2     3    2
    15     2    21    1
    16    21    22    1
    17    22    24    1
    18    24    25   ar
    19    25    26   ar
    20    26    27    1
    21    26    28   ar
    22    28    29   ar
    23    29    30   ar
    24    30    31   ar
    25    31    34    1
    26    34    35    1
    27    34    36    1
    28    34    37    1
    29    31    32   ar
    30    32    33   ar
    31     7     8    1
    32    12    13    1
    33    13    14    1
    34    19    20   ar
    35    20    16   ar
    36    14     9    1
    37     8     5    1
    38    33    24   ar
    39    33    28   ar
    40     1     4    1
    41    22    23    1
@<TRIPOS>MOLECULE
*****
 37 41 0 0 0
SMALL
GASTEIGER

@<TRIPOS>ATOM
      1 N         141.6384  142.4842  159.3934 N.am    1  UNL1       -0.3018
      2 C         140.5348  143.4659  159.1321 C.2     1  UNL1        0.2425
      3 O         139.4269  143.1141  158.1840 O.2     1  UNL1       -0.2733
      4 H         142.3655  142.7151  160.0157 H       1  UNL1        0.1495
      5 N         141.6279  139.2647  157.7355 N.3     1  UNL1       -0.2711
      6 C         140.9564  139.8346  158.9496 C.3     1  UNL1        0.0933
      7 C         141.6341  141.1506  158.7067 C.3     1  UNL1        0.1035
      8 C         142.3055  140.5806  157.4925 C.3     1  UNL1        0.0933
      9 C         141.6149  135.2641  155.6751 C.3     1  UNL1        0.0301
     10 C         140.5527  136.2746  155.3579 C.3     1  UNL1        0.0063
     11 C         140.5570  137.6081  156.0446 C.3     1  UNL1        0.0163
     12 C         141.6236  137.9311  157.0487 C.3     1  UNL1        0.0576
     13 C         142.6858  136.9207  157.3659 C.3     1  UNL1        0.0163
     14 C         142.6814  135.5871  156.6791 C.3     1  UNL1        0.0063
     15 C         142.1240  130.0907  154.7490 C.3     1  UNL1        0.0594
     16 C         141.8445  131.5526  154.5626 C.ar    1  UNL1        0.0884
     17 N         141.3629  132.2043  153.3003 N.ar    1  UNL1       -0.2415
     18 C         141.2183  133.6739  153.5634 C.ar    1  UNL1        0.1012
     19 C         141.6105  133.9306  154.9883 C.ar    1  UNL1        0.0271
     20 S         141.9975  132.6195  155.6059 S.2     1  UNL1       -0.0751
     21 C         140.5392  144.7994  159.8189 C.3     1  UNL1        0.1747
     22 N         141.7658  145.2644  160.5464 N.pl3   1  UNL1       -0.3093
     23 H         142.2421  146.0708  160.2429 H       1  UNL1        0.1487
     24 C         142.2668  144.5007  161.7363 C.ar    1  UNL1        0.1500
     25 N         143.6315  143.8961  161.8851 N.ar    1  UNL1       -0.1544
     26 N         143.6991  143.2293  163.2271 N.ar    1  UNL1       -0.2476
     27 C         144.8819  142.4983  163.7897 C.3     1  UNL1        0.1537
     28 C         142.3762  143.4217  163.9075 C.ar    1  UNL1        0.0807
     29 C         141.8634  142.9830  165.2471 C.ar    1  UNL1        0.0188
     30 C         140.4653  143.3301  165.6653 C.ar    1  UNL1        0.0054
     31 C         139.5801  144.1159  164.7439 C.ar    1  UNL1        0.0716
     32 C         140.0930  144.5546  163.4044 C.ar    1  UNL1        0.0082
     33 C         141.4910  144.2075  162.9862 C.ar    1  UNL1        0.0503
     34 C         138.1820  144.4629  165.1621 C.3     1  UNL1        0.4186
     35 F         136.7839  144.8100  165.5804 F       1  UNL1       -0.1659
     36 F         137.6431  143.4280  164.2196 F       1  UNL1       -0.1659
     37 F         138.7209  145.4978  166.1047 F       1  UNL1       -0.1659
@<TRIPOS>BOND
     1    15    16    1
     2    16    17   ar
     3    17    18   ar
     4    18    19   ar
     5     9    19    1
     6     9    10    1
     7    10    11    1
     8    11    12    1
     9    12     5    1
    10     5     6    1
    11     6     7    1
    12     7     1    1
    13     1     2   am
    14     2     3    2
    15     2    21    1
    16    21    22    1
    17    22    24    1
    18    24    25   ar
    19    25    26   ar
    20    26    27    1
    21    26    28   ar
    22    28    29   ar
    23    29    30   ar
    24    30    31   ar
    25    31    34    1
    26    34    35    1
    27    34    36    1
    28    34    37    1
    29    31    32   ar
    30    32    33   ar
    31     7     8    1
    32    12    13    1
    33    13    14    1
    34    19    20   ar
    35    20    16   ar
    36    14     9    1
    37     8     5    1
    38    33    24   ar
    39    33    28   ar
    40     1     4    1
    41    22    23    1
@<TRIPOS>MOLECULE
*****
 37 41 0 0 0
SMALL
GASTEIGER

@<TRIPOS>ATOM
      1 N         143.1415  139.8768  157.6874 N.am    1  UNL1       -0.3018
      2 C         143.7404  140.1989  159.0243 C.2     1  UNL1        0.2425
      3 O         144.1209  139.0917  159.9621 O.2     1  UNL1       -0.2733
      4 H         142.8917  140.6035  157.0719 H       1  UNL1        0.1495
      5 N         142.6144  136.4261  156.7234 N.3     1  UNL1       -0.2711
      6 C         143.4557  137.5552  156.2063 C.3     1  UNL1        0.0933
      7 C         142.9231  138.4475  157.2881 C.3     1  UNL1        0.1035
      8 C         142.0819  137.3185  157.8052 C.3     1  UNL1        0.0933
      9 C         141.9593  132.1382  155.5257 C.3     1  UNL1        0.0301
     10 C         142.8871  132.4675  156.6575 C.3     1  UNL1        0.0063
     11 C         143.1054  133.8968  157.0566 C.3     1  UNL1        0.0163
     12 C         142.3960  134.9968  156.3242 C.3     1  UNL1        0.0576
     13 C         141.4682  134.6676  155.1925 C.3     1  UNL1        0.0163
     14 C         141.2499  133.2383  154.7932 C.3     1  UNL1        0.0063
     15 C         139.6368  127.6523  153.9885 C.3     1  UNL1        0.0594
     16 C         140.6735  128.6469  154.4200 C.ar    1  UNL1        0.0884
     17 N         142.1364  128.3718  154.6046 N.ar    1  UNL1       -0.2415
     18 C         142.7962  129.6461  155.0413 C.ar    1  UNL1        0.1012
     19 C         141.7410  130.7089  155.1266 C.ar    1  UNL1        0.0271
     20 S         140.4290  130.0913  154.7425 S.2     1  UNL1       -0.0751
     21 C         143.9588  141.6282  159.4236 C.3     1  UNL1        0.1747
     22 N         144.6407  141.9488  160.7206 N.pl3   1  UNL1       -0.3093
     23 H         145.5924  141.7290  160.8439 H       1  UNL1        0.1487
     24 C         143.8726  142.6044  161.8298 C.ar    1  UNL1        0.1500
     25 N         143.2967  143.9892  161.8049 N.ar    1  UNL1       -0.1544
     26 N         142.6137  144.2308  163.1183 N.ar    1  UNL1       -0.2476
     27 C         141.9019  145.4873  163.5240 C.3     1  UNL1        0.1537
     28 C         142.7676  142.9953  163.9550 C.ar    1  UNL1        0.0807
     29 C         142.2997  142.6558  165.3391 C.ar    1  UNL1        0.0188
     30 C         142.6099  141.3111  165.9269 C.ar    1  UNL1        0.0054
     31 C         143.3879  140.3059  165.1305 C.ar    1  UNL1        0.0716
     32 C         143.8558  140.6454  163.7464 C.ar    1  UNL1        0.0082
     33 C         143.5456  141.9901  163.1587 C.ar    1  UNL1        0.0503
     34 C         143.6981  138.9611  165.7183 C.3     1  UNL1        0.4186
     35 F         144.0082  137.6164  166.3061 F       1  UNL1       -0.1659
     36 F         145.0625  139.0040  165.0966 F       1  UNL1       -0.1659
     37 F         142.3337  138.9182  166.3400 F       1  UNL1       -0.1659
@<TRIPOS>BOND
     1    15    16    1
     2    16    17   ar
     3    17    18   ar
     4    18    19   ar
     5     9    19    1
     6     9    10    1
     7    10    11    1
     8    11    12    1
     9    12     5    1
    10     5     6    1
    11     6     7    1
    12     7     1    1
    13     1     2   am
    14     2     3    2
    15     2    21    1
    16    21    22    1
    17    22    24    1
    18    24    25   ar
    19    25    26   ar
    20    26    27    1
    21    26    28   ar
    22    28    29   ar
    23    29    30   ar
    24    30    31   ar
    25    31    34    1
    26    34    35    1
    27    34    36    1
    28    34    37    1
    29    31    32   ar
    30    32    33   ar
    31     7     8    1
    32    12    13    1
    33    13    14    1
    34    19    20   ar
    35    20    16   ar
    36    14     9    1
    37     8     5    1
    38    33    24   ar
    39    33    28   ar
    40     1     4    1
    41    22    23    1
