@<TRIPOS>MOLECULE
*****
 36 39 0 0 0
SMALL
GASTEIGER

@<TRIPOS>ATOM
      1 C         142.6260  140.3125  165.1649 C.3     1  UNL1        0.0545
      2 C         141.7382  140.4106  166.3699 C.3     1  UNL1        0.0162
      3 C         140.5133  139.5842  166.1117 C.3     1  UNL1        0.0100
      4 C         140.6441  138.9753  164.7471 C.3     1  UNL1        0.0704
      5 C         141.9499  139.4255  164.1620 C.3     1  UNL1        0.0243
      6 C         140.4956  138.2403  163.4481 C.2     1  UNL1        0.2248
      7 O         140.9185  136.8048  163.3459 O.2     1  UNL1       -0.2749
      8 N         139.9240  138.9407  162.2511 N.am    1  UNL1       -0.2760
      9 C         139.5011  140.3762  162.3532 C.3     1  UNL1        0.1149
     10 C         138.9295  141.0767  161.1563 C.3     1  UNL1        0.1137
     11 N         138.7809  140.3417  159.8572 N.pl3   1  UNL1       -0.2897
     12 C         139.2039  138.9062  159.7550 C.3     1  UNL1        0.1137
     13 C         139.7754  138.2057  160.9519 C.3     1  UNL1        0.1149
     14 C         138.2094  141.0422  158.6603 C.ar    1  UNL1        0.1317
     15 C         138.7276  142.3926  158.2632 C.ar    1  UNL1        0.0343
     16 C         138.1560  143.0931  157.0663 C.ar    1  UNL1        0.0044
     17 C         137.0662  142.4431  156.2665 C.ar    1  UNL1        0.0232
     18 C         136.5479  141.0927  156.6635 C.ar    1  UNL1        0.1540
     19 N         137.1194  140.3922  157.8605 N.ar    1  UNL1       -0.2267
     20 C         135.4580  140.4428  155.8637 C.3     1  UNL1        0.4349
     21 F         134.3682  139.7929  155.0638 F       1  UNL1       -0.1644
     22 F         134.6645  140.2291  157.1185 F       1  UNL1       -0.1644
     23 F         136.2516  140.6565  154.6088 F       1  UNL1       -0.1644
     24 C         139.3074  138.3715  165.0607 C.3     1  UNL1        0.0082
     25 C         138.1802  139.2452  165.5256 C.3     1  UNL1        0.0005
     26 C         138.9481  137.4556  165.0357 C.3     1  UNL1        0.0005
     27 N         143.9565  140.9837  164.9930 N.3     1  UNL1       -0.2975
     28 H         144.2962  141.2078  165.9283 H       1  UNL1        0.1232
     29 C         144.6179  142.1885  162.7882 C.3     1  UNL1        0.1591
     30 C         144.7246  143.4451  161.9762 C.3     1  UNL1        0.1729
     31 O         144.2766  144.7536  162.5568 O.3     1  UNL1       -0.3511
     32 C         143.7219  144.8055  163.9495 C.3     1  UNL1        0.1437
     33 C         143.6152  143.5489  164.7615 C.3     1  UNL1        0.0503
     34 C         144.0632  142.2404  164.1809 C.3     1  UNL1        0.0865
     35 C         144.1367  140.0892  161.3352 C.3     1  UNL1        0.1742
     36 O         145.0659  140.8800  162.2076 O.3     1  UNL1       -0.3496
@<TRIPOS>BOND
     1    35    36    1
     2    29    36    1
     3    29    30    1
     4    30    31    1
     5    31    32    1
     6    32    33    1
     7    33    34    1
     8    34    27    1
     9     1    27    1
    10     1     2    1
    11     2     3    1
    12     3     4    1
    13     4     6    1
    14     6     7    2
    15     6     8   am
    16     8     9    1
    17     9    10    1
    18    10    11    1
    19    11    14    1
    20    14    15   ar
    21    15    16   ar
    22    16    17   ar
    23    17    18   ar
    24    18    20    1
    25    20    21    1
    26    20    22    1
    27    20    23    1
    28    18    19   ar
    29    11    12    1
    30    12    13    1
    31     4    24    1
    32    24    25    1
    33    24    26    1
    34     4     5    1
    35    34    29    1
    36     5     1    1
    37    13     8    1
    38    19    14   ar
    39    27    28    1
@<TRIPOS>MOLECULE
*****
 36 39 0 0 0
SMALL
GASTEIGER

@<TRIPOS>ATOM
      1 C         140.9254  141.5396  160.1067 C.3     1  UNL1        0.0545
      2 C         142.2851  141.3512  159.5020 C.3     1  UNL1        0.0162
      3 C         142.8756  140.0951  160.0710 C.3     1  UNL1        0.0100
      4 C         141.8808  139.5072  161.0274 C.3     1  UNL1        0.0704
      5 C         140.6756  140.4000  161.0495 C.3     1  UNL1        0.0243
      6 C         141.1040  138.6974  162.0227 C.2     1  UNL1        0.2248
      7 O         140.4649  137.4066  161.6040 O.2     1  UNL1       -0.2749
      8 N         140.9662  139.1783  163.4369 N.am    1  UNL1       -0.2760
      9 C         141.6054  140.4691  163.8556 C.3     1  UNL1        0.1149
     10 C         141.4677  140.9501  165.2697 C.3     1  UNL1        0.1137
     11 N         140.6909  140.1403  166.2651 N.pl3   1  UNL1       -0.2897
     12 C         140.0518  138.8495  165.8463 C.3     1  UNL1        0.1137
     13 C         140.1895  138.3685  164.4322 C.3     1  UNL1        0.1149
     14 C         140.5532  140.6213  167.6792 C.ar    1  UNL1        0.1317
     15 C         139.3824  140.1853  168.5091 C.ar    1  UNL1        0.0343
     16 C         139.2447  140.6663  169.9232 C.ar    1  UNL1        0.0044
     17 C         140.2779  141.5834  170.5073 C.ar    1  UNL1        0.0232
     18 C         141.4488  142.0195  169.6774 C.ar    1  UNL1        0.1540
     19 N         141.5865  141.5385  168.2633 N.ar    1  UNL1       -0.2267
     20 C         142.4820  142.9367  170.2616 C.3     1  UNL1        0.4349
     21 F         143.5152  143.8538  170.8458 F       1  UNL1       -0.1644
     22 F         141.4884  144.0604  170.2548 F       1  UNL1       -0.1644
     23 F         143.4756  141.8130  170.2684 F       1  UNL1       -0.1644
     24 C         142.9236  138.4453  161.2134 C.3     1  UNL1        0.0082
     25 C         143.1403  137.4121  160.1477 C.3     1  UNL1        0.0005
     26 C         143.5650  138.2349  161.9296 C.3     1  UNL1        0.0005
     27 N         139.9814  142.6692  159.8192 N.3     1  UNL1       -0.2975
     28 H         140.3867  143.2032  159.0504 H       1  UNL1        0.1232
     29 C         138.4783  143.3941  161.8105 C.3     1  UNL1        0.1591
     30 C         138.1367  144.3790  162.8891 C.3     1  UNL1        0.1729
     31 O         138.9568  145.6240  163.0549 O.3     1  UNL1       -0.3511
     32 C         140.1183  145.8841  162.1422 C.3     1  UNL1        0.1437
     33 C         140.4599  144.8992  161.0636 C.3     1  UNL1        0.0503
     34 C         139.6398  143.6542  160.8978 C.3     1  UNL1        0.0865
     35 C         137.5423  141.1711  162.7761 C.3     1  UNL1        0.1742
     36 O         137.6582  142.1491  161.6447 O.3     1  UNL1       -0.3496
@<TRIPOS>BOND
     1    35    36    1
     2    29    36    1
     3    29    30    1
     4    30    31    1
     5    31    32    1
     6    32    33    1
     7    33    34    1
     8    34    27    1
     9     1    27    1
    10     1     2    1
    11     2     3    1
    12     3     4    1
    13     4     6    1
    14     6     7    2
    15     6     8   am
    16     8     9    1
    17     9    10    1
    18    10    11    1
    19    11    14    1
    20    14    15   ar
    21    15    16   ar
    22    16    17   ar
    23    17    18   ar
    24    18    20    1
    25    20    21    1
    26    20    22    1
    27    20    23    1
    28    18    19   ar
    29    11    12    1
    30    12    13    1
    31     4    24    1
    32    24    25    1
    33    24    26    1
    34     4     5    1
    35    34    29    1
    36     5     1    1
    37    13     8    1
    38    19    14   ar
    39    27    28    1
@<TRIPOS>MOLECULE
*****
 36 39 0 0 0
SMALL
GASTEIGER

@<TRIPOS>ATOM
      1 C         141.3044  142.3354  164.4775 C.3     1  UNL1        0.0545
      2 C         142.1468  143.5692  164.3431 C.3     1  UNL1        0.0162
      3 C         143.5029  143.1536  163.8547 C.3     1  UNL1        0.0100
      4 C         143.4986  141.6630  163.6874 C.3     1  UNL1        0.0704
      5 C         142.1398  141.1573  164.0723 C.3     1  UNL1        0.0243
      6 C         143.7910  140.2148  163.4282 C.2     1  UNL1        0.2248
      7 O         144.4703  139.3872  164.4787 O.2     1  UNL1       -0.2749
      8 N         143.4041  139.5942  162.1185 N.am    1  UNL1       -0.2760
      9 C         142.7248  140.4219  161.0681 C.3     1  UNL1        0.1149
     10 C         142.3380  139.8014  159.7584 C.3     1  UNL1        0.1137
     11 N         142.6304  138.3532  159.4992 N.pl3   1  UNL1       -0.2897
     12 C         143.3097  137.5255  160.5496 C.3     1  UNL1        0.1137
     13 C         143.6966  138.1460  161.8593 C.3     1  UNL1        0.1149
     14 C         142.2435  137.7327  158.1895 C.ar    1  UNL1        0.1317
     15 C         141.1288  138.3248  157.3792 C.ar    1  UNL1        0.0343
     16 C         140.7419  137.7043  156.0695 C.ar    1  UNL1        0.0044
     17 C         141.4698  136.4916  155.5701 C.ar    1  UNL1        0.0232
     18 C         142.5846  135.8994  156.3804 C.ar    1  UNL1        0.1540
     19 N         142.9715  136.5199  157.6901 N.ar    1  UNL1       -0.2267
     20 C         143.3124  134.6867  155.8810 C.3     1  UNL1        0.4349
     21 F         144.0403  133.4739  155.3816 F       1  UNL1       -0.1644
     22 F         142.2088  133.8117  156.3971 F       1  UNL1       -0.1644
     23 F         144.4161  135.5616  155.3649 F       1  UNL1       -0.1644
     24 C         144.9183  141.8660  163.2483 C.3     1  UNL1        0.0082
     25 C         145.2095  142.4938  161.9175 C.3     1  UNL1        0.0005
     26 C         145.7939  141.6717  163.6538 C.3     1  UNL1        0.0005
     27 N         139.8772  142.2880  164.9366 N.3     1  UNL1       -0.2975
     28 H         139.6909  143.1716  165.4108 H       1  UNL1        0.1232
     29 C         138.4504  140.1616  165.3760 C.3     1  UNL1        0.1591
     30 C         137.9954  139.0705  166.2992 C.3     1  UNL1        0.1729
     31 O         138.5122  139.0145  167.7063 O.3     1  UNL1       -0.3511
     32 C         139.4840  140.0496  168.1901 C.3     1  UNL1        0.1437
     33 C         139.9390  141.1407  167.2669 C.3     1  UNL1        0.0503
     34 C         139.4222  141.1967  165.8599 C.3     1  UNL1        0.0865
     35 C         138.4978  139.2995  162.9256 C.3     1  UNL1        0.1742
     36 O         137.9336  140.2177  163.9690 O.3     1  UNL1       -0.3496
@<TRIPOS>BOND
     1    35    36    1
     2    29    36    1
     3    29    30    1
     4    30    31    1
     5    31    32    1
     6    32    33    1
     7    33    34    1
     8    34    27    1
     9     1    27    1
    10     1     2    1
    11     2     3    1
    12     3     4    1
    13     4     6    1
    14     6     7    2
    15     6     8   am
    16     8     9    1
    17     9    10    1
    18    10    11    1
    19    11    14    1
    20    14    15   ar
    21    15    16   ar
    22    16    17   ar
    23    17    18   ar
    24    18    20    1
    25    20    21    1
    26    20    22    1
    27    20    23    1
    28    18    19   ar
    29    11    12    1
    30    12    13    1
    31     4    24    1
    32    24    25    1
    33    24    26    1
    34     4     5    1
    35    34    29    1
    36     5     1    1
    37    13     8    1
    38    19    14   ar
    39    27    28    1
@<TRIPOS>MOLECULE
*****
 36 39 0 0 0
SMALL
GASTEIGER

@<TRIPOS>ATOM
      1 C         139.8907  142.1979  164.4715 C.3     1  UNL1        0.0545
      2 C         140.3650  143.1237  165.5522 C.3     1  UNL1        0.0162
      3 C         141.6939  143.6806  165.1353 C.3     1  UNL1        0.0100
      4 C         142.0410  143.0990  163.7970 C.3     1  UNL1        0.0704
      5 C         140.9266  142.1826  163.3867 C.3     1  UNL1        0.0243
      6 C         142.6475  142.6910  162.4872 C.2     1  UNL1        0.2248
      7 O         143.6975  141.6205  162.4478 O.2     1  UNL1       -0.2749
      8 N         142.2041  143.3537  161.2166 N.am    1  UNL1       -0.2760
      9 C         141.1542  144.4242  161.2559 C.3     1  UNL1        0.1149
     10 C         140.7107  145.0869  159.9854 C.3     1  UNL1        0.1137
     11 N         141.3172  144.6790  158.6755 N.pl3   1  UNL1       -0.2897
     12 C         142.3671  143.6085  158.6362 C.3     1  UNL1        0.1137
     13 C         142.8106  142.9458  159.9067 C.3     1  UNL1        0.1149
     14 C         140.8737  145.3417  157.4050 C.ar    1  UNL1        0.1317
     15 C         141.2713  144.7637  156.0793 C.ar    1  UNL1        0.0343
     16 C         140.8278  145.4264  154.8087 C.ar    1  UNL1        0.0044
     17 C         139.9867  146.6671  154.8641 C.ar    1  UNL1        0.0232
     18 C         139.5890  147.2451  156.1899 C.ar    1  UNL1        0.1540
     19 N         140.0325  146.5824  157.4604 N.ar    1  UNL1       -0.2267
     20 C         138.7478  148.4858  156.2451 C.3     1  UNL1        0.4349
     21 F         137.9067  149.7265  156.3004 F       1  UNL1       -0.1644
     22 F         138.9370  148.6798  154.7698 F       1  UNL1       -0.1644
     23 F         138.5586  148.2918  157.7204 F       1  UNL1       -0.1644
     24 C         143.2822  143.9300  163.9334 C.3     1  UNL1        0.0082
     25 C         144.4165  143.4493  164.7892 C.3     1  UNL1        0.0005
     26 C         143.5680  144.7974  163.5664 C.3     1  UNL1        0.0005
     27 N         138.6062  141.4233  164.4750 N.3     1  UNL1       -0.2975
     28 H         138.4312  141.1476  165.4413 H       1  UNL1        0.1232
     29 C         137.8573  140.2598  162.2760 C.3     1  UNL1        0.1591
     30 C         137.7268  139.0202  161.4416 C.3     1  UNL1        0.1729
     31 O         138.2145  137.7044  161.9717 O.3     1  UNL1       -0.3511
     32 C         138.8328  137.6283  163.3362 C.3     1  UNL1        0.1437
     33 C         138.9633  138.8679  164.1706 C.3     1  UNL1        0.0503
     34 C         138.4756  140.1837  163.6405 C.3     1  UNL1        0.0865
     35 C         138.1915  142.3319  160.7448 C.3     1  UNL1        0.1742
     36 O         137.3696  141.5755  161.7459 O.3     1  UNL1       -0.3496
@<TRIPOS>BOND
     1    35    36    1
     2    29    36    1
     3    29    30    1
     4    30    31    1
     5    31    32    1
     6    32    33    1
     7    33    34    1
     8    34    27    1
     9     1    27    1
    10     1     2    1
    11     2     3    1
    12     3     4    1
    13     4     6    1
    14     6     7    2
    15     6     8   am
    16     8     9    1
    17     9    10    1
    18    10    11    1
    19    11    14    1
    20    14    15   ar
    21    15    16   ar
    22    16    17   ar
    23    17    18   ar
    24    18    20    1
    25    20    21    1
    26    20    22    1
    27    20    23    1
    28    18    19   ar
    29    11    12    1
    30    12    13    1
    31     4    24    1
    32    24    25    1
    33    24    26    1
    34     4     5    1
    35    34    29    1
    36     5     1    1
    37    13     8    1
    38    19    14   ar
    39    27    28    1
@<TRIPOS>MOLECULE
*****
 36 39 0 0 0
SMALL
GASTEIGER

@<TRIPOS>ATOM
      1 C         139.7930  141.1540  160.1702 C.3     1  UNL1        0.0545
      2 C         139.4917  139.8697  159.4562 C.3     1  UNL1        0.0162
      3 C         140.6123  138.9116  159.7328 C.3     1  UNL1        0.0100
      4 C         141.6061  139.6038  160.6177 C.3     1  UNL1        0.0704
      5 C         141.0998  140.9896  160.8881 C.3     1  UNL1        0.0243
      6 C         142.7561  140.0247  161.4840 C.2     1  UNL1        0.2248
      7 O         144.0841  140.3447  160.8644 O.2     1  UNL1       -0.2749
      8 N         142.5780  140.1255  162.9700 N.am    1  UNL1       -0.2760
      9 C         141.2500  139.8055  163.5896 C.3     1  UNL1        0.1149
     10 C         141.0719  139.9063  165.0756 C.3     1  UNL1        0.1137
     11 N         142.2218  140.3272  165.9420 N.pl3   1  UNL1       -0.2897
     12 C         143.5498  140.6472  165.3223 C.3     1  UNL1        0.1137
     13 C         143.7279  140.5464  163.8364 C.3     1  UNL1        0.1149
     14 C         142.0437  140.4280  167.4279 C.ar    1  UNL1        0.1317
     15 C         142.6045  139.3643  168.3245 C.ar    1  UNL1        0.0343
     16 C         142.4264  139.4651  169.8104 C.ar    1  UNL1        0.0044
     17 C         141.6874  140.6297  170.3998 C.ar    1  UNL1        0.0232
     18 C         141.1265  141.6936  169.5033 C.ar    1  UNL1        0.1540
     19 N         141.3047  141.5927  168.0173 N.ar    1  UNL1       -0.2267
     20 C         140.3876  142.8582  170.0928 C.3     1  UNL1        0.4349
     21 F         139.6486  144.0229  170.6823 F       1  UNL1       -0.1644
     22 F         139.1690  141.9999  170.2610 F       1  UNL1       -0.1644
     23 F         141.6062  143.7165  169.9246 F       1  UNL1       -0.1644
     24 C         142.3528  138.3060  160.5285 C.3     1  UNL1        0.0082
     25 C         142.8262  137.8030  159.1969 C.3     1  UNL1        0.0005
     26 C         142.6386  137.6348  161.1891 C.3     1  UNL1        0.0005
     27 N         138.9378  142.3863  160.1670 N.3     1  UNL1       -0.2975
     28 H         139.2495  142.9590  159.3826 H       1  UNL1        0.1232
     29 C         138.0073  142.9527  162.5257 C.3     1  UNL1        0.1591
     30 C         137.9761  143.8471  163.7295 C.3     1  UNL1        0.1729
     31 O         138.8440  145.0695  163.7783 O.3     1  UNL1       -0.3511
     32 C         139.7432  145.3976  162.6234 C.3     1  UNL1        0.1437
     33 C         139.7744  144.5031  161.4196 C.3     1  UNL1        0.0503
     34 C         138.9065  143.2807  161.3708 C.3     1  UNL1        0.0865
     35 C         137.6439  140.4298  163.0283 C.3     1  UNL1        0.1742
     36 O         137.1394  141.7303  162.4769 O.3     1  UNL1       -0.3496
@<TRIPOS>BOND
     1    35    36    1
     2    29    36    1
     3    29    30    1
     4    30    31    1
     5    31    32    1
     6    32    33    1
     7    33    34    1
     8    34    27    1
     9     1    27    1
    10     1     2    1
    11     2     3    1
    12     3     4    1
    13     4     6    1
    14     6     7    2
    15     6     8   am
    16     8     9    1
    17     9    10    1
    18    10    11    1
    19    11    14    1
    20    14    15   ar
    21    15    16   ar
    22    16    17   ar
    23    17    18   ar
    24    18    20    1
    25    20    21    1
    26    20    22    1
    27    20    23    1
    28    18    19   ar
    29    11    12    1
    30    12    13    1
    31     4    24    1
    32    24    25    1
    33    24    26    1
    34     4     5    1
    35    34    29    1
    36     5     1    1
    37    13     8    1
    38    19    14   ar
    39    27    28    1
@<TRIPOS>MOLECULE
*****
 36 39 0 0 0
SMALL
GASTEIGER

@<TRIPOS>ATOM
      1 C         141.8899  140.5077  166.6495 C.3     1  UNL1        0.0545
      2 C         142.5649  139.1811  166.4635 C.3     1  UNL1        0.0162
      3 C         141.7269  138.3619  165.5271 C.3     1  UNL1        0.0100
      4 C         140.5341  139.1822  165.1344 C.3     1  UNL1        0.0704
      5 C         140.6348  140.5083  165.8281 C.3     1  UNL1        0.0243
      6 C         139.2648  139.7501  164.5721 C.2     1  UNL1        0.2248
      7 O         137.9735  139.5826  165.3169 O.2     1  UNL1       -0.2749
      8 N         139.2866  140.4856  163.2650 N.am    1  UNL1       -0.2760
      9 C         140.5778  140.6531  162.5202 C.3     1  UNL1        0.1149
     10 C         140.5997  141.3886  161.2131 C.3     1  UNL1        0.1137
     11 N         139.3304  141.9566  160.6507 N.pl3   1  UNL1       -0.2897
     12 C         138.0392  141.7891  161.3955 C.3     1  UNL1        0.1137
     13 C         138.0173  141.0536  162.7026 C.3     1  UNL1        0.1149
     14 C         139.3523  142.6921  159.3436 C.ar    1  UNL1        0.1317
     15 C         138.3261  142.3858  158.2933 C.ar    1  UNL1        0.0343
     16 C         138.3480  143.1213  156.9862 C.ar    1  UNL1        0.0044
     17 C         139.3962  144.1631  156.7294 C.ar    1  UNL1        0.0232
     18 C         140.4224  144.4695  157.7797 C.ar    1  UNL1        0.1540
     19 N         140.4005  143.7340  159.0868 N.ar    1  UNL1       -0.2267
     20 C         141.4705  145.5113  157.5228 C.3     1  UNL1        0.4349
     21 F         142.5186  146.5532  157.2659 F       1  UNL1       -0.1644
     22 F         141.2752  145.3434  156.0451 F       1  UNL1       -0.1644
     23 F         141.6657  145.6793  159.0005 F       1  UNL1       -0.1644
     24 C         140.1680  137.9748  164.3232 C.3     1  UNL1        0.0082
     25 C         141.2082  137.2884  163.4885 C.3     1  UNL1        0.0005
     26 C         139.3344  137.4694  164.1873 C.3     1  UNL1        0.0005
     27 N         142.3834  141.6355  167.5065 N.3     1  UNL1       -0.2975
     28 H         143.3692  141.4530  167.6944 H       1  UNL1        0.1232
     29 C         142.1152  141.1036  170.0353 C.3     1  UNL1        0.1591
     30 C         141.4658  141.3793  171.3590 C.3     1  UNL1        0.1729
     31 O         140.4353  142.4628  171.4776 O.3     1  UNL1       -0.3511
     32 C         140.0542  143.2706  170.2726 C.3     1  UNL1        0.1437
     33 C         140.7035  142.9948  168.9489 C.3     1  UNL1        0.0503
     34 C         141.7341  141.9113  168.8302 C.3     1  UNL1        0.0865
     35 C         142.7484  138.5845  170.0934 C.3     1  UNL1        0.1742
     36 O         143.1457  140.0201  169.9167 O.3     1  UNL1       -0.3496
@<TRIPOS>BOND
     1    35    36    1
     2    29    36    1
     3    29    30    1
     4    30    31    1
     5    31    32    1
     6    32    33    1
     7    33    34    1
     8    34    27    1
     9     1    27    1
    10     1     2    1
    11     2     3    1
    12     3     4    1
    13     4     6    1
    14     6     7    2
    15     6     8   am
    16     8     9    1
    17     9    10    1
    18    10    11    1
    19    11    14    1
    20    14    15   ar
    21    15    16   ar
    22    16    17   ar
    23    17    18   ar
    24    18    20    1
    25    20    21    1
    26    20    22    1
    27    20    23    1
    28    18    19   ar
    29    11    12    1
    30    12    13    1
    31     4    24    1
    32    24    25    1
    33    24    26    1
    34     4     5    1
    35    34    29    1
    36     5     1    1
    37    13     8    1
    38    19    14   ar
    39    27    28    1
@<TRIPOS>MOLECULE
*****
 36 39 0 0 0
SMALL
GASTEIGER

@<TRIPOS>ATOM
      1 C         141.6758  142.4521  165.2030 C.3     1  UNL1        0.0545
      2 C         142.5444  141.7426  166.1991 C.3     1  UNL1        0.0162
      3 C         143.8222  141.3621  165.5118 C.3     1  UNL1        0.0100
      4 C         143.7434  141.8363  164.0910 C.3     1  UNL1        0.0704
      5 C         142.4168  142.5099  163.9001 C.3     1  UNL1        0.0243
      6 C         143.9508  142.1849  162.6469 C.2     1  UNL1        0.2248
      7 O         144.6117  143.4792  162.2752 O.2     1  UNL1       -0.2749
      8 N         143.4974  141.2393  161.5744 N.am    1  UNL1       -0.2760
      9 C         142.8365  139.9450  161.9461 C.3     1  UNL1        0.1149
     10 C         142.3831  138.9994  160.8737 C.3     1  UNL1        0.1137
     11 N         142.5905  139.3479  159.4296 N.pl3   1  UNL1       -0.2897
     12 C         143.2514  140.6422  159.0579 C.3     1  UNL1        0.1137
     13 C         143.7048  141.5878  160.1303 C.3     1  UNL1        0.1149
     14 C         142.1370  138.4022  158.3571 C.ar    1  UNL1        0.1317
     15 C         140.8297  138.6316  157.6586 C.ar    1  UNL1        0.0343
     16 C         140.3762  137.6859  156.5862 C.ar    1  UNL1        0.0044
     17 C         141.2302  136.5108  156.2124 C.ar    1  UNL1        0.0232
     18 C         142.5377  136.2814  156.9109 C.ar    1  UNL1        0.1540
     19 N         142.9911  137.2271  157.9833 N.ar    1  UNL1       -0.2267
     20 C         143.3916  135.1063  156.5370 C.3     1  UNL1        0.4349
     21 F         144.2456  133.9312  156.1631 F       1  UNL1       -0.1644
     22 F         143.3437  135.5291  155.0986 F       1  UNL1       -0.1644
     23 F         143.4396  134.6835  157.9754 F       1  UNL1       -0.1644
     24 C         145.1132  141.2355  163.9800 C.3     1  UNL1        0.0082
     25 C         145.3236  139.7842  164.2952 C.3     1  UNL1        0.0005
     26 C         145.9964  141.5889  163.7273 C.3     1  UNL1        0.0005
     27 N         140.3066  143.0063  165.4640 N.3     1  UNL1       -0.2975
     28 H         140.0046  142.6334  166.3641 H       1  UNL1        0.1232
     29 C         138.7681  143.8185  163.5343 C.3     1  UNL1        0.1591
     30 C         137.6557  143.5577  162.5625 C.3     1  UNL1        0.1729
     31 O         136.9694  142.2240  162.5484 O.3     1  UNL1       -0.3511
     32 C         137.3954  141.1511  163.5061 C.3     1  UNL1        0.1437
     33 C         138.5078  141.4119  164.4779 C.3     1  UNL1        0.0503
     34 C         139.1941  142.7456  164.4921 C.3     1  UNL1        0.0865
     35 C         140.1123  145.6703  162.3040 C.3     1  UNL1        0.1742
     36 O         139.4544  145.1522  163.5485 O.3     1  UNL1       -0.3496
@<TRIPOS>BOND
     1    35    36    1
     2    29    36    1
     3    29    30    1
     4    30    31    1
     5    31    32    1
     6    32    33    1
     7    33    34    1
     8    34    27    1
     9     1    27    1
    10     1     2    1
    11     2     3    1
    12     3     4    1
    13     4     6    1
    14     6     7    2
    15     6     8   am
    16     8     9    1
    17     9    10    1
    18    10    11    1
    19    11    14    1
    20    14    15   ar
    21    15    16   ar
    22    16    17   ar
    23    17    18   ar
    24    18    20    1
    25    20    21    1
    26    20    22    1
    27    20    23    1
    28    18    19   ar
    29    11    12    1
    30    12    13    1
    31     4    24    1
    32    24    25    1
    33    24    26    1
    34     4     5    1
    35    34    29    1
    36     5     1    1
    37    13     8    1
    38    19    14   ar
    39    27    28    1
@<TRIPOS>MOLECULE
*****
 36 39 0 0 0
SMALL
GASTEIGER

@<TRIPOS>ATOM
      1 C         141.1640  141.8003  164.6056 C.3     1  UNL1        0.0545
      2 C         141.5029  140.8870  165.7462 C.3     1  UNL1        0.0162
      3 C         140.9455  139.5297  165.4345 C.3     1  UNL1        0.0100
      4 C         140.2622  139.6042  164.1013 C.3     1  UNL1        0.0704
      5 C         140.3972  141.0075  163.5891 C.3     1  UNL1        0.0243
      6 C         139.5181  139.3754  162.8192 C.2     1  UNL1        0.2248
      7 O         138.0251  139.5155  162.7831 O.2     1  UNL1       -0.2749
      8 N         140.2671  139.0064  161.5729 N.am    1  UNL1       -0.2760
      9 C         141.7601  138.8663  161.6090 C.3     1  UNL1        0.1149
     10 C         142.5091  138.4973  160.3629 C.3     1  UNL1        0.1137
     11 N         141.7651  138.2685  159.0807 N.pl3   1  UNL1       -0.2897
     12 C         140.2721  138.4086  159.0446 C.3     1  UNL1        0.1137
     13 C         139.5231  138.7776  160.2907 C.3     1  UNL1        0.1149
     14 C         142.5141  137.8995  157.8345 C.ar    1  UNL1        0.1317
     15 C         143.0323  138.9738  156.9250 C.ar    1  UNL1        0.0343
     16 C         143.7813  138.6048  155.6789 C.ar    1  UNL1        0.0044
     17 C         144.0121  137.1615  155.3423 C.ar    1  UNL1        0.0232
     18 C         143.4939  136.0871  156.2518 C.ar    1  UNL1        0.1540
     19 N         142.7449  136.4560  157.4979 N.ar    1  UNL1       -0.2267
     20 C         143.7248  134.6437  155.9151 C.3     1  UNL1        0.4349
     21 F         143.9556  133.2003  155.5785 F       1  UNL1       -0.1644
     22 F         144.0996  134.3709  157.3417 F       1  UNL1       -0.1644
     23 F         143.3500  134.9165  154.4886 F       1  UNL1       -0.1644
     24 C         139.9716  138.1531  164.3455 C.3     1  UNL1        0.0082
     25 C         141.0998  137.1710  164.4594 C.3     1  UNL1        0.0005
     26 C         139.1452  137.6313  164.4614 C.3     1  UNL1        0.0005
     27 N         141.5280  143.2517  164.5002 N.3     1  UNL1       -0.2975
     28 H         141.1064  143.7200  165.3023 H       1  UNL1        0.1232
     29 C         139.8994  144.8876  163.3079 C.3     1  UNL1        0.1591
     30 C         139.5062  145.6730  162.0919 C.3     1  UNL1        0.1729
     31 O         140.3483  145.6078  160.8523 O.3     1  UNL1       -0.3511
     32 C         141.5837  144.7573  160.8287 C.3     1  UNL1        0.1437
     33 C         141.9769  143.9720  162.0446 C.3     1  UNL1        0.0503
     34 C         141.1347  144.0371  163.2842 C.3     1  UNL1        0.0865
     35 C         137.8978  144.0163  164.7165 C.3     1  UNL1        0.1742
     36 O         139.0573  144.9527  164.5475 O.3     1  UNL1       -0.3496
@<TRIPOS>BOND
     1    35    36    1
     2    29    36    1
     3    29    30    1
     4    30    31    1
     5    31    32    1
     6    32    33    1
     7    33    34    1
     8    34    27    1
     9     1    27    1
    10     1     2    1
    11     2     3    1
    12     3     4    1
    13     4     6    1
    14     6     7    2
    15     6     8   am
    16     8     9    1
    17     9    10    1
    18    10    11    1
    19    11    14    1
    20    14    15   ar
    21    15    16   ar
    22    16    17   ar
    23    17    18   ar
    24    18    20    1
    25    20    21    1
    26    20    22    1
    27    20    23    1
    28    18    19   ar
    29    11    12    1
    30    12    13    1
    31     4    24    1
    32    24    25    1
    33    24    26    1
    34     4     5    1
    35    34    29    1
    36     5     1    1
    37    13     8    1
    38    19    14   ar
    39    27    28    1
@<TRIPOS>MOLECULE
*****
 36 39 0 0 0
SMALL
GASTEIGER

@<TRIPOS>ATOM
      1 C         139.4203  142.0063  164.4148 C.3     1  UNL1        0.0545
      2 C         138.0539  141.4980  164.7679 C.3     1  UNL1        0.0162
      3 C         138.1132  139.9998  164.8103 C.3     1  UNL1        0.0100
      4 C         139.5163  139.5820  164.4834 C.3     1  UNL1        0.0704
      5 C         140.3241  140.8221  164.2391 C.3     1  UNL1        0.0243
      6 C         140.8069  138.8742  164.1951 C.2     1  UNL1        0.2248
      7 O         141.6324  138.3304  165.3233 O.2     1  UNL1       -0.2749
      8 N         141.2721  138.7101  162.7785 N.am    1  UNL1       -0.2760
      9 C         140.4466  139.2539  161.6503 C.3     1  UNL1        0.1149
     10 C         140.9117  139.0898  160.2337 C.3     1  UNL1        0.1137
     11 N         142.2023  138.3820  159.9453 N.pl3   1  UNL1       -0.2897
     12 C         143.0279  137.8382  161.0735 C.3     1  UNL1        0.1137
     13 C         142.5628  138.0022  162.4901 C.3     1  UNL1        0.1149
     14 C         142.6675  138.2179  158.5287 C.ar    1  UNL1        0.1317
     15 C         142.8927  139.4259  157.6685 C.ar    1  UNL1        0.0343
     16 C         143.3578  139.2619  156.2519 C.ar    1  UNL1        0.0044
     17 C         143.5977  137.8897  155.6955 C.ar    1  UNL1        0.0232
     18 C         143.3724  136.6817  156.5556 C.ar    1  UNL1        0.1540
     19 N         142.9073  136.8457  157.9722 N.ar    1  UNL1       -0.2267
     20 C         143.6123  135.3095  155.9991 C.3     1  UNL1        0.4349
     21 F         143.8522  133.9374  155.4426 F       1  UNL1       -0.1644
     22 F         143.5509  134.7370  157.3842 F       1  UNL1       -0.1644
     23 F         143.6737  135.8820  154.6141 F       1  UNL1       -0.1644
     24 C         138.9783  138.1941  164.6675 C.3     1  UNL1        0.0082
     25 C         138.4477  137.7664  166.0038 C.3     1  UNL1        0.0005
     26 C         138.8756  137.4162  164.0734 C.3     1  UNL1        0.0005
     27 N         139.8138  143.4458  164.2641 N.3     1  UNL1       -0.2975
     28 H         138.9567  143.9678  164.0814 H       1  UNL1        0.1232
     29 C         140.3343  144.0861  161.8005 C.3     1  UNL1        0.1591
     30 C         141.3194  144.4875  160.7430 C.3     1  UNL1        0.1729
     31 O         142.7693  144.6501  161.0916 O.3     1  UNL1       -0.3511
     32 C         143.2340  144.4113  162.4976 C.3     1  UNL1        0.1437
     33 C         142.2488  144.0098  163.5551 C.3     1  UNL1        0.0503
     34 C         140.7990  143.8473  163.2065 C.3     1  UNL1        0.0865
     35 C         138.3806  142.6095  160.9329 C.3     1  UNL1        0.1742
     36 O         138.8844  143.9235  161.4519 O.3     1  UNL1       -0.3496
@<TRIPOS>BOND
     1    35    36    1
     2    29    36    1
     3    29    30    1
     4    30    31    1
     5    31    32    1
     6    32    33    1
     7    33    34    1
     8    34    27    1
     9     1    27    1
    10     1     2    1
    11     2     3    1
    12     3     4    1
    13     4     6    1
    14     6     7    2
    15     6     8   am
    16     8     9    1
    17     9    10    1
    18    10    11    1
    19    11    14    1
    20    14    15   ar
    21    15    16   ar
    22    16    17   ar
    23    17    18   ar
    24    18    20    1
    25    20    21    1
    26    20    22    1
    27    20    23    1
    28    18    19   ar
    29    11    12    1
    30    12    13    1
    31     4    24    1
    32    24    25    1
    33    24    26    1
    34     4     5    1
    35    34    29    1
    36     5     1    1
    37    13     8    1
    38    19    14   ar
    39    27    28    1
