@<TRIPOS>MOLECULE
*****
 28 30 0 0 0
SMALL
GASTEIGER

@<TRIPOS>ATOM
      1 C         140.3920  140.0339  166.0863 C.ar    1  UNL1        0.0084
      2 C         141.6644  139.7466  165.3457 C.ar    1  UNL1        0.0212
      3 C         142.9228  139.4466  166.1050 C.ar    1  UNL1        0.1523
      4 N         142.9088  139.4340  167.6049 N.ar    1  UNL1       -0.2414
      5 C         141.6364  139.7213  168.3455 C.ar    1  UNL1        0.0848
      6 C         141.6224  139.7087  169.8454 C.ar    1  UNL1        0.0890
      7 C         140.3500  139.9960  170.5859 C.ar    1  UNL1        0.0054
      8 C         139.0916  140.2959  169.8267 C.ar    1  UNL1        0.0000
      9 C         139.1056  140.3085  168.3268 C.ar    1  UNL1        0.0012
     10 C         140.3780  140.0212  167.5862 C.ar    1  UNL1        0.0160
     11 C         144.1952  139.1593  165.3643 C.3     1  UNL1        0.4348
     12 F         145.4675  138.8721  164.6237 F       1  UNL1       -0.1644
     13 F         144.4805  138.0194  166.2966 F       1  UNL1       -0.1644
     14 F         143.9099  140.2993  164.4321 F       1  UNL1       -0.1644
     15 C         142.8808  139.4087  170.6046 C.3     1  UNL1        0.4200
     16 F         144.1392  139.1088  171.3639 F       1  UNL1       -0.1658
     17 F         142.6424  137.9394  170.4194 F       1  UNL1       -0.1658
     18 F         143.1192  140.8780  170.7899 F       1  UNL1       -0.1658
     19 O         138.1398  139.2421  165.0612 O.3     1  UNL1       -0.3787
     20 C         139.1336  140.3338  165.3270 C.3     1  UNL1        0.1470
     21 H         138.4617  138.4114  165.4448 H       1  UNL1        0.2108
     22 C         138.8690  141.7253  164.8336 C.3     1  UNL1        0.0855
     23 C         139.5050  142.8980  165.5195 C.3     1  UNL1        0.0186
     24 C         139.2404  144.2896  165.0260 C.3     1  UNL1        0.0029
     25 C         138.3397  144.5085  163.8467 C.3     1  UNL1        0.0171
     26 C         137.7037  143.3359  163.1608 C.3     1  UNL1        0.0686
     27 N         137.9683  141.9444  163.6542 N.3     1  UNL1       -0.2963
     28 H         138.3738  141.4274  162.8740 H       1  UNL1        0.1233
@<TRIPOS>BOND
     1    20    19    1
     2    20     1    1
     3     1     2   ar
     4     2     3   ar
     5     3    11    1
     6    11    12    1
     7    11    13    1
     8    11    14    1
     9     3     4   ar
    10     4     5   ar
    11     5     6   ar
    12     6    15    1
    13    15    16    1
    14    15    17    1
    15    15    18    1
    16     6     7   ar
    17     7     8   ar
    18     8     9   ar
    19     9    10   ar
    20    20    22    1
    21    22    23    1
    22    23    24    1
    23    24    25    1
    24    25    26    1
    25    26    27    1
    26    10     1   ar
    27    27    22    1
    28    10     5   ar
    29    19    21    1
    30    27    28    1
@<TRIPOS>MOLECULE
*****
 28 30 0 0 0
SMALL
GASTEIGER

@<TRIPOS>ATOM
      1 C         139.5207  142.4423  164.0537 C.ar    1  UNL1        0.0084
      2 C         138.8630  141.9519  162.7980 C.ar    1  UNL1        0.0212
      3 C         138.1867  140.6131  162.7791 C.ar    1  UNL1        0.1523
      4 N         138.1681  139.7648  164.0160 N.ar    1  UNL1       -0.2414
      5 C         138.8259  140.2552  165.2718 C.ar    1  UNL1        0.0848
      6 C         138.8073  139.4068  166.5087 C.ar    1  UNL1        0.0890
      7 C         139.4651  139.8972  167.7644 C.ar    1  UNL1        0.0054
      8 C         140.1414  141.2360  167.7832 C.ar    1  UNL1        0.0000
      9 C         140.1599  142.0843  166.5463 C.ar    1  UNL1        0.0012
     10 C         139.5022  141.5939  165.2906 C.ar    1  UNL1        0.0160
     11 C         137.5289  140.1227  161.5234 C.3     1  UNL1        0.4348
     12 F         136.8712  139.6324  160.2676 F       1  UNL1       -0.1644
     13 F         137.4006  138.7546  162.1248 F       1  UNL1       -0.1644
     14 F         137.6573  141.4908  160.9219 F       1  UNL1       -0.1644
     15 C         138.1311  138.0680  166.4899 C.3     1  UNL1        0.4200
     16 F         137.4548  136.7293  166.4710 F       1  UNL1       -0.1658
     17 F         137.0558  138.5986  167.3912 F       1  UNL1       -0.1658
     18 F         139.2063  137.5375  165.5886 F       1  UNL1       -0.1658
     19 O         139.4554  144.9891  164.5631 O.3     1  UNL1       -0.3787
     20 C         140.1970  143.7810  164.0725 C.3     1  UNL1        0.1470
     21 H         138.5584  144.7322  164.8283 H       1  UNL1        0.2108
     22 C         141.6148  143.9118  163.6007 C.3     1  UNL1        0.0855
     23 C         142.3799  145.1746  163.8653 C.3     1  UNL1        0.0186
     24 C         143.7978  145.3052  163.3935 C.3     1  UNL1        0.0029
     25 C         144.4506  144.1732  162.6572 C.3     1  UNL1        0.0171
     26 C         143.6855  142.9104  162.3926 C.3     1  UNL1        0.0686
     27 N         142.2677  142.7797  162.8643 N.3     1  UNL1       -0.2963
     28 H         142.2367  141.9693  163.4830 H       1  UNL1        0.1233
@<TRIPOS>BOND
     1    20    19    1
     2    20     1    1
     3     1     2   ar
     4     2     3   ar
     5     3    11    1
     6    11    12    1
     7    11    13    1
     8    11    14    1
     9     3     4   ar
    10     4     5   ar
    11     5     6   ar
    12     6    15    1
    13    15    16    1
    14    15    17    1
    15    15    18    1
    16     6     7   ar
    17     7     8   ar
    18     8     9   ar
    19     9    10   ar
    20    20    22    1
    21    22    23    1
    22    23    24    1
    23    24    25    1
    24    25    26    1
    25    26    27    1
    26    10     1   ar
    27    27    22    1
    28    10     5   ar
    29    19    21    1
    30    27    28    1
@<TRIPOS>MOLECULE
*****
 28 30 0 0 0
SMALL
GASTEIGER

@<TRIPOS>ATOM
      1 C         140.3327  139.2649  166.0458 C.ar    1  UNL1        0.0084
      2 C         141.5549  139.1218  165.1881 C.ar    1  UNL1        0.0212
      3 C         142.8785  139.6298  165.6778 C.ar    1  UNL1        0.1523
      4 N         142.9799  140.2810  167.0253 N.ar    1  UNL1       -0.2414
      5 C         141.7577  140.4241  167.8831 C.ar    1  UNL1        0.0848
      6 C         141.8591  141.0753  169.2305 C.ar    1  UNL1        0.0890
      7 C         140.6369  141.2184  170.0882 C.ar    1  UNL1        0.0054
      8 C         139.3133  140.7103  169.5984 C.ar    1  UNL1        0.0000
      9 C         139.2119  140.0592  168.2510 C.ar    1  UNL1        0.0012
     10 C         140.4341  139.9161  167.3933 C.ar    1  UNL1        0.0160
     11 C         144.1008  139.4867  164.8200 C.3     1  UNL1        0.4348
     12 F         145.3229  139.3435  163.9624 F       1  UNL1       -0.1644
     13 F         143.5642  140.5268  163.8819 F       1  UNL1       -0.1644
     14 F         144.6373  138.4465  165.7582 F       1  UNL1       -0.1644
     15 C         143.1828  141.5833  169.7202 C.3     1  UNL1        0.4200
     16 F         144.5064  142.0914  170.2100 F       1  UNL1       -0.1658
     17 F         142.9446  142.8849  169.0137 F       1  UNL1       -0.1658
     18 F         143.4210  140.2817  170.4267 F       1  UNL1       -0.1658
     19 O         138.1525  137.9111  166.4512 O.3     1  UNL1       -0.3787
     20 C         139.0090  138.7568  165.5560 C.3     1  UNL1        0.1470
     21 H         138.5982  137.7888  167.3040 H       1  UNL1        0.2108
     22 C         138.5419  139.0944  164.1712 C.3     1  UNL1        0.0855
     23 C         138.0473  140.4765  163.8626 C.3     1  UNL1        0.0186
     24 C         137.5802  140.8141  162.4777 C.3     1  UNL1        0.0029
     25 C         137.6076  139.7696  161.4015 C.3     1  UNL1        0.0171
     26 C         138.1022  138.3875  161.7101 C.3     1  UNL1        0.0686
     27 N         138.5693  138.0499  163.0949 N.3     1  UNL1       -0.2963
     28 H         139.5370  137.7384  163.0115 H       1  UNL1        0.1233
@<TRIPOS>BOND
     1    20    19    1
     2    20     1    1
     3     1     2   ar
     4     2     3   ar
     5     3    11    1
     6    11    12    1
     7    11    13    1
     8    11    14    1
     9     3     4   ar
    10     4     5   ar
    11     5     6   ar
    12     6    15    1
    13    15    16    1
    14    15    17    1
    15    15    18    1
    16     6     7   ar
    17     7     8   ar
    18     8     9   ar
    19     9    10   ar
    20    20    22    1
    21    22    23    1
    22    23    24    1
    23    24    25    1
    24    25    26    1
    25    26    27    1
    26    10     1   ar
    27    27    22    1
    28    10     5   ar
    29    19    21    1
    30    27    28    1
@<TRIPOS>MOLECULE
*****
 28 30 0 0 0
SMALL
GASTEIGER

@<TRIPOS>ATOM
      1 C         138.8756  141.6649  163.8970 C.ar    1  UNL1        0.0084
      2 C         139.6594  142.8876  163.5220 C.ar    1  UNL1        0.0212
      3 C         140.6076  143.5023  164.5084 C.ar    1  UNL1        0.1523
      4 N         140.7720  142.8944  165.8698 N.ar    1  UNL1       -0.2414
      5 C         139.9882  141.6717  166.2449 C.ar    1  UNL1        0.0848
      6 C         140.1526  141.0638  167.6062 C.ar    1  UNL1        0.0890
      7 C         139.3688  139.8411  167.9812 C.ar    1  UNL1        0.0054
      8 C         138.4206  139.2263  166.9949 C.ar    1  UNL1        0.0000
      9 C         138.2562  139.8342  165.6335 C.ar    1  UNL1        0.0012
     10 C         139.0400  141.0569  165.2585 C.ar    1  UNL1        0.0160
     11 C         141.3914  144.7251  164.1334 C.3     1  UNL1        0.4348
     12 F         142.1751  145.9478  163.7583 F       1  UNL1       -0.1644
     13 F         142.6434  144.0813  164.6509 F       1  UNL1       -0.1644
     14 F         140.1394  145.3689  163.6158 F       1  UNL1       -0.1644
     15 C         141.1008  141.6786  168.5926 C.3     1  UNL1        0.4200
     16 F         142.0490  142.2934  169.5790 F       1  UNL1       -0.1658
     17 F         140.0222  142.6182  169.0439 F       1  UNL1       -0.1658
     18 F         142.1795  140.7390  168.1413 F       1  UNL1       -0.1658
     19 O         136.4507  141.2740  163.0501 O.3     1  UNL1       -0.3787
     20 C         137.9274  141.0501  162.9107 C.3     1  UNL1        0.1470
     21 H         136.2802  141.8339  163.8236 H       1  UNL1        0.2108
     22 C         138.4558  140.2114  161.7849 C.3     1  UNL1        0.0855
     23 C         139.2646  138.9832  162.0802 C.3     1  UNL1        0.0186
     24 C         139.7930  138.1445  160.9544 C.3     1  UNL1        0.0029
     25 C         139.5125  138.5341  159.5333 C.3     1  UNL1        0.0171
     26 C         138.7037  139.7623  159.2380 C.3     1  UNL1        0.0686
     27 N         138.1753  140.6010  160.3637 N.3     1  UNL1       -0.2963
     28 H         137.1609  140.6273  160.2603 H       1  UNL1        0.1233
@<TRIPOS>BOND
     1    20    19    1
     2    20     1    1
     3     1     2   ar
     4     2     3   ar
     5     3    11    1
     6    11    12    1
     7    11    13    1
     8    11    14    1
     9     3     4   ar
    10     4     5   ar
    11     5     6   ar
    12     6    15    1
    13    15    16    1
    14    15    17    1
    15    15    18    1
    16     6     7   ar
    17     7     8   ar
    18     8     9   ar
    19     9    10   ar
    20    20    22    1
    21    22    23    1
    22    23    24    1
    23    24    25    1
    24    25    26    1
    25    26    27    1
    26    10     1   ar
    27    27    22    1
    28    10     5   ar
    29    19    21    1
    30    27    28    1
@<TRIPOS>MOLECULE
*****
 28 30 0 0 0
SMALL
GASTEIGER

@<TRIPOS>ATOM
      1 C         140.2049  142.6378  165.7826 C.ar    1  UNL1        0.0084
      2 C         140.5529  142.6061  167.2412 C.ar    1  UNL1        0.0212
      3 C         140.1953  141.4094  168.0719 C.ar    1  UNL1        0.1523
      4 N         139.4896  140.2443  167.4438 N.ar    1  UNL1       -0.2414
      5 C         139.1416  140.2759  165.9850 C.ar    1  UNL1        0.0848
      6 C         138.4359  139.1108  165.3569 C.ar    1  UNL1        0.0890
      7 C         138.0879  139.1424  163.8982 C.ar    1  UNL1        0.0054
      8 C         138.4455  140.3391  163.0676 C.ar    1  UNL1        0.0000
      9 C         139.1512  141.5042  163.6957 C.ar    1  UNL1        0.0012
     10 C         139.4992  141.4726  165.1544 C.ar    1  UNL1        0.0160
     11 C         140.5434  141.3778  169.5306 C.3     1  UNL1        0.4348
     12 F         140.8914  141.3463  170.9893 F       1  UNL1       -0.1644
     13 F         140.5672  139.8785  169.4925 F       1  UNL1       -0.1644
     14 F         140.5196  142.8771  169.5687 F       1  UNL1       -0.1644
     15 C         138.0783  137.9140  166.1875 C.3     1  UNL1        0.4200
     16 F         137.7207  136.7173  167.0181 F       1  UNL1       -0.1658
     17 F         139.0340  137.0758  165.3913 F       1  UNL1       -0.1658
     18 F         137.1226  138.7523  166.9838 F       1  UNL1       -0.1658
     19 O         139.6212  144.9996  164.8709 O.3     1  UNL1       -0.3787
     20 C         140.5626  143.8345  164.9519 C.3     1  UNL1        0.1470
     21 H         138.8352  144.8183  165.4096 H       1  UNL1        0.2108
     22 C         141.8614  143.8662  164.2024 C.3     1  UNL1        0.0855
     23 C         142.5220  145.1789  163.9017 C.3     1  UNL1        0.0186
     24 C         143.8210  145.2105  163.1521 C.3     1  UNL1        0.0029
     25 C         144.4593  143.9295  162.7033 C.3     1  UNL1        0.0171
     26 C         143.7987  142.6168  163.0041 C.3     1  UNL1        0.0686
     27 N         142.4998  142.5851  163.7536 N.3     1  UNL1       -0.2963
     28 H         142.6570  142.0251  164.5915 H       1  UNL1        0.1233
@<TRIPOS>BOND
     1    20    19    1
     2    20     1    1
     3     1     2   ar
     4     2     3   ar
     5     3    11    1
     6    11    12    1
     7    11    13    1
     8    11    14    1
     9     3     4   ar
    10     4     5   ar
    11     5     6   ar
    12     6    15    1
    13    15    16    1
    14    15    17    1
    15    15    18    1
    16     6     7   ar
    17     7     8   ar
    18     8     9   ar
    19     9    10   ar
    20    20    22    1
    21    22    23    1
    22    23    24    1
    23    24    25    1
    24    25    26    1
    25    26    27    1
    26    10     1   ar
    27    27    22    1
    28    10     5   ar
    29    19    21    1
    30    27    28    1
@<TRIPOS>MOLECULE
*****
 28 30 0 0 0
SMALL
GASTEIGER

@<TRIPOS>ATOM
      1 C         138.7349  139.9501  165.3246 C.ar    1  UNL1        0.0084
      2 C         138.1535  141.2841  164.9609 C.ar    1  UNL1        0.0212
      3 C         138.3856  141.8558  163.5936 C.ar    1  UNL1        0.1523
      4 N         139.1990  141.0934  162.5901 N.ar    1  UNL1       -0.2414
      5 C         139.7805  139.7594  162.9539 C.ar    1  UNL1        0.0848
      6 C         140.5939  138.9970  161.9504 C.ar    1  UNL1        0.0890
      7 C         141.1753  137.6630  162.3141 C.ar    1  UNL1        0.0054
      8 C         140.9433  137.0914  163.6814 C.ar    1  UNL1        0.0000
      9 C         140.1298  137.8537  164.6849 C.ar    1  UNL1        0.0012
     10 C         139.5484  139.1877  164.3211 C.ar    1  UNL1        0.0160
     11 C         137.8041  143.1899  163.2299 C.3     1  UNL1        0.4348
     12 F         137.2227  144.5239  162.8662 F       1  UNL1       -0.1644
     13 F         137.7232  143.5510  164.6835 F       1  UNL1       -0.1644
     14 F         137.8850  142.8288  161.7763 F       1  UNL1       -0.1644
     15 C         140.8260  139.5687  160.5831 C.3     1  UNL1        0.4200
     16 F         141.0580  140.1403  159.2159 F       1  UNL1       -0.1658
     17 F         142.1059  140.1889  161.0597 F       1  UNL1       -0.1658
     18 F         139.5461  138.9484  160.1065 F       1  UNL1       -0.1658
     19 O         137.3619  138.4331  166.9258 O.3     1  UNL1       -0.3787
     20 C         138.5028  139.3785  166.6919 C.3     1  UNL1        0.1470
     21 H         136.8778  138.2991  166.0960 H       1  UNL1        0.2108
     22 C         139.4116  139.7521  167.8252 C.3     1  UNL1        0.0855
     23 C         140.8487  140.0867  167.5551 C.3     1  UNL1        0.0186
     24 C         141.7575  140.4604  168.6885 C.3     1  UNL1        0.0029
     25 C         141.2293  140.4995  170.0919 C.3     1  UNL1        0.0171
     26 C         139.7922  140.1649  170.3619 C.3     1  UNL1        0.0686
     27 N         138.8834  139.7912  169.2286 N.3     1  UNL1       -0.2963
     28 H         138.1140  140.4608  169.2351 H       1  UNL1        0.1233
@<TRIPOS>BOND
     1    20    19    1
     2    20     1    1
     3     1     2   ar
     4     2     3   ar
     5     3    11    1
     6    11    12    1
     7    11    13    1
     8    11    14    1
     9     3     4   ar
    10     4     5   ar
    11     5     6   ar
    12     6    15    1
    13    15    16    1
    14    15    17    1
    15    15    18    1
    16     6     7   ar
    17     7     8   ar
    18     8     9   ar
    19     9    10   ar
    20    20    22    1
    21    22    23    1
    22    23    24    1
    23    24    25    1
    24    25    26    1
    25    26    27    1
    26    10     1   ar
    27    27    22    1
    28    10     5   ar
    29    19    21    1
    30    27    28    1
@<TRIPOS>MOLECULE
*****
 28 30 0 0 0
SMALL
GASTEIGER

@<TRIPOS>ATOM
      1 C         139.4206  139.5346  163.7652 C.ar    1  UNL1        0.0084
      2 C         139.7352  139.2200  165.1976 C.ar    1  UNL1        0.0212
      3 C         139.6488  140.2967  166.2384 C.ar    1  UNL1        0.1523
      4 N         139.2479  141.6880  165.8467 N.ar    1  UNL1       -0.2414
      5 C         138.9333  142.0026  164.4142 C.ar    1  UNL1        0.0848
      6 C         138.5323  143.3940  164.0225 C.ar    1  UNL1        0.0890
      7 C         138.2177  143.7086  162.5901 C.ar    1  UNL1        0.0054
      8 C         138.3041  142.6318  161.5493 C.ar    1  UNL1        0.0000
      9 C         138.7051  141.2405  161.9409 C.ar    1  UNL1        0.0012
     10 C         139.0196  140.9259  163.3734 C.ar    1  UNL1        0.0160
     11 C         139.9634  139.9820  167.6710 C.3     1  UNL1        0.4348
     12 F         140.2780  139.6673  169.1034 F       1  UNL1       -0.1644
     13 F         141.3327  140.5699  167.4994 F       1  UNL1       -0.1644
     14 F         138.5942  139.3942  167.8425 F       1  UNL1       -0.1644
     15 C         138.4460  144.4707  165.0633 C.3     1  UNL1        0.4200
     16 F         138.3596  145.5474  166.1041 F       1  UNL1       -0.1658
     17 F         139.9149  144.7344  164.9124 F       1  UNL1       -0.1658
     18 F         136.9771  144.2069  165.2143 F       1  UNL1       -0.1658
     19 O         138.3511  137.5258  162.5118 O.3     1  UNL1       -0.3787
     20 C         139.5070  138.4579  162.7244 C.3     1  UNL1        0.1470
     21 H         137.6343  137.7548  163.1239 H       1  UNL1        0.2108
     22 C         140.7492  138.3132  161.8962 C.3     1  UNL1        0.0855
     23 C         142.0613  138.0132  162.5582 C.3     1  UNL1        0.0186
     24 C         143.3035  137.8685  161.7299 C.3     1  UNL1        0.0029
     25 C         143.2336  138.0240  160.2396 C.3     1  UNL1        0.0171
     26 C         141.9215  138.3241  159.5776 C.3     1  UNL1        0.0686
     27 N         140.6793  138.4687  160.4058 N.3     1  UNL1       -0.2963
     28 H         140.0170  137.7705  160.0677 H       1  UNL1        0.1233
@<TRIPOS>BOND
     1    20    19    1
     2    20     1    1
     3     1     2   ar
     4     2     3   ar
     5     3    11    1
     6    11    12    1
     7    11    13    1
     8    11    14    1
     9     3     4   ar
    10     4     5   ar
    11     5     6   ar
    12     6    15    1
    13    15    16    1
    14    15    17    1
    15    15    18    1
    16     6     7   ar
    17     7     8   ar
    18     8     9   ar
    19     9    10   ar
    20    20    22    1
    21    22    23    1
    22    23    24    1
    23    24    25    1
    24    25    26    1
    25    26    27    1
    26    10     1   ar
    27    27    22    1
    28    10     5   ar
    29    19    21    1
    30    27    28    1
@<TRIPOS>MOLECULE
*****
 28 30 0 0 0
SMALL
GASTEIGER

@<TRIPOS>ATOM
      1 C         141.1619  141.7601  165.8212 C.ar    1  UNL1        0.0084
      2 C         140.1617  142.7426  165.2880 C.ar    1  UNL1        0.0212
      3 C         139.2190  142.3348  164.1948 C.ar    1  UNL1        0.1523
      4 N         139.2766  140.9445  163.6347 N.ar    1  UNL1       -0.2414
      5 C         140.2769  139.9619  164.1678 C.ar    1  UNL1        0.0848
      6 C         140.3345  138.5717  163.6077 C.ar    1  UNL1        0.0890
      7 C         141.3347  137.5892  164.1408 C.ar    1  UNL1        0.0054
      8 C         142.2773  137.9970  165.2341 C.ar    1  UNL1        0.0000
      9 C         142.2198  139.3873  165.7942 C.ar    1  UNL1        0.0012
     10 C         141.2195  140.3697  165.2610 C.ar    1  UNL1        0.0160
     11 C         138.2188  143.3173  163.6617 C.3     1  UNL1        0.4348
     12 F         137.2186  144.2999  163.1287 F       1  UNL1       -0.1644
     13 F         137.3894  142.1855  163.1316 F       1  UNL1       -0.1644
     14 F         139.0481  144.4492  164.1918 F       1  UNL1       -0.1644
     15 C         139.3918  138.1638  162.5145 C.3     1  UNL1        0.4200
     16 F         138.4492  137.7560  161.4213 F       1  UNL1       -0.1658
     17 F         138.4876  137.5310  163.5303 F       1  UNL1       -0.1658
     18 F         140.2960  138.7967  161.4987 F       1  UNL1       -0.1658
     19 O         143.4850  142.6465  166.5746 O.3     1  UNL1       -0.3787
     20 C         142.1046  142.1679  166.9144 C.3     1  UNL1        0.1470
     21 H         143.6048  142.6310  165.6121 H       1  UNL1        0.2108
     22 C         141.6668  142.0972  168.3473 C.3     1  UNL1        0.0855
     23 C         140.5765  142.9997  168.8439 C.3     1  UNL1        0.0186
     24 C         140.1388  142.9290  170.2769 C.3     1  UNL1        0.0029
     25 C         140.7913  141.9557  171.2132 C.3     1  UNL1        0.0171
     26 C         141.8816  141.0531  170.7166 C.3     1  UNL1        0.0686
     27 N         142.3194  141.1238  169.2837 N.3     1  UNL1       -0.2963
     28 H         142.1796  140.1946  168.8869 H       1  UNL1        0.1233
@<TRIPOS>BOND
     1    20    19    1
     2    20     1    1
     3     1     2   ar
     4     2     3   ar
     5     3    11    1
     6    11    12    1
     7    11    13    1
     8    11    14    1
     9     3     4   ar
    10     4     5   ar
    11     5     6   ar
    12     6    15    1
    13    15    16    1
    14    15    17    1
    15    15    18    1
    16     6     7   ar
    17     7     8   ar
    18     8     9   ar
    19     9    10   ar
    20    20    22    1
    21    22    23    1
    22    23    24    1
    23    24    25    1
    24    25    26    1
    25    26    27    1
    26    10     1   ar
    27    27    22    1
    28    10     5   ar
    29    19    21    1
    30    27    28    1
@<TRIPOS>MOLECULE
*****
 28 30 0 0 0
SMALL
GASTEIGER

@<TRIPOS>ATOM
      1 C         141.1028  139.7845  165.4394 C.ar    1  UNL1        0.0084
      2 C         142.3224  140.4241  164.8450 C.ar    1  UNL1        0.0212
      3 C         143.0548  141.4913  165.6031 C.ar    1  UNL1        0.1523
      4 N         142.5676  141.9188  166.9558 N.ar    1  UNL1       -0.2414
      5 C         141.3479  141.2793  167.5503 C.ar    1  UNL1        0.0848
      6 C         140.8607  141.7068  168.9030 C.ar    1  UNL1        0.0890
      7 C         139.6411  141.0673  169.4975 C.ar    1  UNL1        0.0054
      8 C         138.9087  140.0001  168.7393 C.ar    1  UNL1        0.0000
      9 C         139.3959  139.5725  167.3867 C.ar    1  UNL1        0.0012
     10 C         140.6155  140.2121  166.7922 C.ar    1  UNL1        0.0160
     11 C         144.2745  142.1308  165.0086 C.3     1  UNL1        0.4348
     12 F         145.4941  142.7703  164.4140 F       1  UNL1       -0.1644
     13 F         144.2331  143.1933  166.0665 F       1  UNL1       -0.1644
     14 F         144.3158  141.0683  163.9506 F       1  UNL1       -0.1644
     15 C         141.5930  142.7740  169.6612 C.3     1  UNL1        0.4200
     16 F         142.3254  143.8411  170.4193 F       1  UNL1       -0.1658
     17 F         140.6051  143.7945  169.1790 F       1  UNL1       -0.1658
     18 F         142.5809  141.7534  170.1434 F       1  UNL1       -0.1658
     19 O         140.6202  137.2712  164.9918 O.3     1  UNL1       -0.3787
     20 C         140.3705  138.7174  164.6813 C.3     1  UNL1        0.1470
     21 H         141.2775  137.2017  165.7017 H       1  UNL1        0.2108
     22 C         139.3884  139.0963  163.6127 C.3     1  UNL1        0.0855
     23 C         138.7755  138.0356  162.7471 C.3     1  UNL1        0.0186
     24 C         137.7934  138.4147  161.6784 C.3     1  UNL1        0.0029
     25 C         137.4243  139.8543  161.4754 C.3     1  UNL1        0.0171
     26 C         138.0373  140.9149  162.3410 C.3     1  UNL1        0.0686
     27 N         139.0193  140.5360  163.4096 N.3     1  UNL1       -0.2963
     28 H         138.6353  140.8691  164.2939 H       1  UNL1        0.1233
@<TRIPOS>BOND
     1    20    19    1
     2    20     1    1
     3     1     2   ar
     4     2     3   ar
     5     3    11    1
     6    11    12    1
     7    11    13    1
     8    11    14    1
     9     3     4   ar
    10     4     5   ar
    11     5     6   ar
    12     6    15    1
    13    15    16    1
    14    15    17    1
    15    15    18    1
    16     6     7   ar
    17     7     8   ar
    18     8     9   ar
    19     9    10   ar
    20    20    22    1
    21    22    23    1
    22    23    24    1
    23    24    25    1
    24    25    26    1
    25    26    27    1
    26    10     1   ar
    27    27    22    1
    28    10     5   ar
    29    19    21    1
    30    27    28    1
