@<TRIPOS>MOLECULE
*****
 29 31 0 0 0
SMALL
GASTEIGER

@<TRIPOS>ATOM
      1 C         139.8365  139.8000  167.8885 C.ar    1  UNL1        0.1409
      2 N         138.5221  139.6988  168.6041 N.ar    1  UNL1       -0.1986
      3 C         138.4749  139.7808  170.1011 C.ar    1  UNL1        0.2181
      4 N         139.7421  139.9641  170.8825 N.ar    1  UNL1       -0.2120
      5 C         141.0565  140.0653  170.1670 C.ar    1  UNL1        0.1091
      6 C         141.1038  139.9833  168.6700 C.ar    1  UNL1        0.1040
      7 C         142.4182  140.0846  167.9544 C.2     1  UNL1        0.2470
      8 N         142.9011  141.4149  167.4576 N.am    1  UNL1       -0.3252
      9 O         143.2496  138.8554  167.7356 O.2     1  UNL1       -0.2702
     10 H         142.3554  142.2217  167.6012 H       1  UNL1        0.1453
     11 H         143.7638  141.4814  166.9879 H       1  UNL1        0.1453
     12 N         139.8838  139.7180  166.3915 N.pl3   1  UNL1       -0.2977
     13 H         140.3718  138.9835  165.9539 H       1  UNL1        0.1536
     14 C         139.1104  144.7001  165.1340 C.3     1  UNL1        0.0311
     15 C         138.8008  143.2463  164.9325 C.ar    1  UNL1       -0.0206
     16 C         137.7949  142.8297  163.9007 C.ar    1  UNL1       -0.0042
     17 C         137.4853  141.3759  163.6991 C.ar    1  UNL1        0.0009
     18 C         138.1816  140.3387  164.5294 C.ar    1  UNL1        0.0146
     19 C         139.1874  140.7553  165.5612 C.ar    1  UNL1        0.0491
     20 C         139.4970  142.2091  165.7627 C.ar    1  UNL1        0.0104
     21 N         137.1605  139.6796  170.8167 N.pl3   1  UNL1       -0.3016
     22 H         136.8324  140.4371  171.3531 H       1  UNL1        0.1497
     23 C         136.3460  138.4240  170.7150 C.3     1  UNL1        0.1052
     24 C         136.1238  137.5737  171.9305 C.3     1  UNL1        0.0739
     25 C         135.0334  137.7531  172.9449 C.3     1  UNL1        0.0189
     26 C         135.1887  136.6849  173.9864 C.3     1  UNL1        0.0185
     27 C         136.3751  135.8452  173.6158 C.3     1  UNL1        0.0686
     28 N         136.9530  136.3945  172.3452 N.3     1  UNL1       -0.2972
     29 H         136.9284  135.6808  171.6169 H       1  UNL1        0.1233
@<TRIPOS>BOND
     1    14    15    1
     2    15    16   ar
     3    16    17   ar
     4    17    18   ar
     5    18    19   ar
     6    19    12    1
     7    12     1    1
     8     1     2   ar
     9     2     3   ar
    10     3    21    1
    11    21    23    1
    12    24    23    1
    13    24    25    1
    14    25    26    1
    15    26    27    1
    16    27    28    1
    17     3     4   ar
    18     4     5   ar
    19     5     6   ar
    20     6     7    1
    21     7     8   am
    22     7     9    2
    23    19    20   ar
    24    20    15   ar
    25     6     1   ar
    26    28    24    1
    27    12    13    1
    28    21    22    1
    29    28    29    1
    30     8    10    1
    31     8    11    1
@<TRIPOS>MOLECULE
*****
 29 31 0 0 0
SMALL
GASTEIGER

@<TRIPOS>ATOM
      1 C         141.9646  139.8117  167.3209 C.ar    1  UNL1        0.1409
      2 N         142.8084  139.1064  168.3410 N.ar    1  UNL1       -0.1986
      3 C         142.5096  139.2671  169.8022 C.ar    1  UNL1        0.2181
      4 N         141.3670  140.1332  170.2432 N.ar    1  UNL1       -0.2120
      5 C         140.5232  140.8384  169.2231 C.ar    1  UNL1        0.1091
      6 C         140.8220  140.6777  167.7620 C.ar    1  UNL1        0.1040
      7 C         139.9782  141.3830  166.7419 C.2     1  UNL1        0.2470
      8 N         140.0298  142.8779  166.6299 N.am    1  UNL1       -0.3252
      9 O         139.0827  140.5933  165.8338 O.2     1  UNL1       -0.2702
     10 H         140.6176  143.3962  167.2258 H       1  UNL1        0.1453
     11 H         139.4760  143.3408  165.9603 H       1  UNL1        0.1453
     12 N         142.2633  139.6510  165.8598 N.pl3   1  UNL1       -0.2977
     13 H         141.7682  138.9882  165.3261 H       1  UNL1        0.1536
     14 C         144.1984  144.3395  164.7313 C.3     1  UNL1        0.0311
     15 C         144.2841  142.8443  164.6476 C.ar    1  UNL1       -0.0206
     16 C         145.4229  142.1981  163.9158 C.ar    1  UNL1       -0.0042
     17 C         145.5086  140.7029  163.8321 C.ar    1  UNL1        0.0009
     18 C         144.4554  139.8538  164.4801 C.ar    1  UNL1        0.0146
     19 C         143.3166  140.5000  165.2118 C.ar    1  UNL1        0.0491
     20 C         143.2309  141.9952  165.2955 C.ar    1  UNL1        0.0104
     21 N         143.3534  138.5619  170.8222 N.pl3   1  UNL1       -0.3016
     22 H         143.6799  139.0492  171.6129 H       1  UNL1        0.1497
     23 C         143.6997  137.1141  170.6376 C.3     1  UNL1        0.1052
     24 C         144.7722  136.4864  171.4777 C.3     1  UNL1        0.0739
     25 C         144.7995  135.0647  171.9550 C.3     1  UNL1        0.0189
     26 C         146.0499  134.8699  172.7603 C.3     1  UNL1        0.0185
     27 C         146.7955  136.1713  172.7807 C.3     1  UNL1        0.0686
     28 N         146.0058  137.1704  171.9880 N.3     1  UNL1       -0.2972
     29 H         146.5635  137.5087  171.2039 H       1  UNL1        0.1233
@<TRIPOS>BOND
     1    14    15    1
     2    15    16   ar
     3    16    17   ar
     4    17    18   ar
     5    18    19   ar
     6    19    12    1
     7    12     1    1
     8     1     2   ar
     9     2     3   ar
    10     3    21    1
    11    21    23    1
    12    24    23    1
    13    24    25    1
    14    25    26    1
    15    26    27    1
    16    27    28    1
    17     3     4   ar
    18     4     5   ar
    19     5     6   ar
    20     6     7    1
    21     7     8   am
    22     7     9    2
    23    19    20   ar
    24    20    15   ar
    25     6     1   ar
    26    28    24    1
    27    12    13    1
    28    21    22    1
    29    28    29    1
    30     8    10    1
    31     8    11    1
@<TRIPOS>MOLECULE
*****
 29 31 0 0 0
SMALL
GASTEIGER

@<TRIPOS>ATOM
      1 C         142.6579  142.7140  164.1678 C.ar    1  UNL1        0.1409
      2 N         141.6958  143.8523  163.9986 N.ar    1  UNL1       -0.1986
      3 C         141.9506  144.9011  162.9568 C.ar    1  UNL1        0.2181
      4 N         143.1674  144.8115  162.0843 N.ar    1  UNL1       -0.2120
      5 C         144.1295  143.6732  162.2535 C.ar    1  UNL1        0.1091
      6 C         143.8748  142.6245  163.2952 C.ar    1  UNL1        0.1040
      7 C         144.8369  141.4862  163.4644 C.2     1  UNL1        0.2470
      8 N         146.3062  141.7590  163.5938 N.am    1  UNL1       -0.3252
      9 O         144.3297  140.0751  163.5042 O.2     1  UNL1       -0.2702
     10 H         146.6391  142.6851  163.5677 H       1  UNL1        0.1453
     11 H         146.9376  141.0119  163.7049 H       1  UNL1        0.1453
     12 N         142.4032  141.6652  165.2095 N.pl3   1  UNL1       -0.2977
     13 H         142.4096  140.7127  164.9608 H       1  UNL1        0.1536
     14 C         144.1227  142.5304  170.0359 C.3     1  UNL1        0.0311
     15 C         142.9986  142.5004  169.0433 C.ar    1  UNL1       -0.0206
     16 C         141.6100  142.8728  169.4712 C.ar    1  UNL1       -0.0042
     17 C         140.4859  142.8428  168.4786 C.ar    1  UNL1        0.0009
     18 C         140.7502  142.4403  167.0580 C.ar    1  UNL1        0.0146
     19 C         142.1388  142.0678  166.6301 C.ar    1  UNL1        0.0491
     20 C         143.2629  142.0978  167.6227 C.ar    1  UNL1        0.0104
     21 N         140.9885  146.0394  162.7876 N.pl3   1  UNL1       -0.3016
     22 H         141.2597  146.9536  163.0320 H       1  UNL1        0.1497
     23 C         139.6130  145.7846  162.2458 C.3     1  UNL1        0.1052
     24 C         138.7969  144.6439  162.7776 C.3     1  UNL1        0.0739
     25 C         138.3627  144.4589  164.2014 C.3     1  UNL1        0.0189
     26 C         137.5691  143.1886  164.2827 C.3     1  UNL1        0.0185
     27 C         137.5130  142.5885  162.9092 C.3     1  UNL1        0.0686
     28 N         138.2718  143.4879  161.9790 N.3     1  UNL1       -0.2972
     29 H         137.6518  143.8281  161.2440 H       1  UNL1        0.1233
@<TRIPOS>BOND
     1    14    15    1
     2    15    16   ar
     3    16    17   ar
     4    17    18   ar
     5    18    19   ar
     6    19    12    1
     7    12     1    1
     8     1     2   ar
     9     2     3   ar
    10     3    21    1
    11    21    23    1
    12    24    23    1
    13    24    25    1
    14    25    26    1
    15    26    27    1
    16    27    28    1
    17     3     4   ar
    18     4     5   ar
    19     5     6   ar
    20     6     7    1
    21     7     8   am
    22     7     9    2
    23    19    20   ar
    24    20    15   ar
    25     6     1   ar
    26    28    24    1
    27    12    13    1
    28    21    22    1
    29    28    29    1
    30     8    10    1
    31     8    11    1
@<TRIPOS>MOLECULE
*****
 29 31 0 0 0
SMALL
GASTEIGER

@<TRIPOS>ATOM
      1 C         142.7749  143.0968  164.6046 C.ar    1  UNL1        0.1409
      2 N         141.7968  144.2028  164.3398 N.ar    1  UNL1       -0.1986
      3 C         141.8542  144.9612  163.0468 C.ar    1  UNL1        0.2181
      4 N         142.8896  144.6135  162.0187 N.ar    1  UNL1       -0.2120
      5 C         143.8677  143.5075  162.2835 C.ar    1  UNL1        0.1091
      6 C         143.8104  142.7492  163.5764 C.ar    1  UNL1        0.1040
      7 C         144.7885  141.6432  163.8412 C.2     1  UNL1        0.2470
      8 N         146.2429  141.8379  163.5304 N.am    1  UNL1       -0.3252
      9 O         144.3121  140.3425  164.4168 O.2     1  UNL1       -0.2702
     10 H         146.5556  142.6915  163.1526 H       1  UNL1        0.1453
     11 H         146.8849  141.1120  163.7042 H       1  UNL1        0.1453
     12 N         142.7176  142.3384  165.8974 N.pl3   1  UNL1       -0.2977
     13 H         143.4681  142.3908  166.5325 H       1  UNL1        0.1536
     14 C         139.3759  140.4266  169.3871 C.3     1  UNL1        0.0311
     15 C         139.8461  140.5444  167.9676 C.ar    1  UNL1       -0.0206
     16 C         139.1156  139.8240  166.8734 C.ar    1  UNL1       -0.0042
     17 C         139.5857  139.9417  165.4539 C.ar    1  UNL1        0.0009
     18 C         140.7864  140.7799  165.1285 C.ar    1  UNL1        0.0146
     19 C         141.5169  141.5002  166.2227 C.ar    1  UNL1        0.0491
     20 C         141.0467  141.3825  167.6423 C.ar    1  UNL1        0.0104
     21 N         140.8761  146.0671  162.7820 N.pl3   1  UNL1       -0.3016
     22 H         141.1328  147.0024  162.9516 H       1  UNL1        0.1497
     23 C         139.5068  145.7482  162.2589 C.3     1  UNL1        0.1052
     24 C         138.7543  144.5679  162.7979 C.3     1  UNL1        0.0739
     25 C         138.3988  144.3305  164.2357 C.3     1  UNL1        0.0189
     26 C         137.6498  143.0336  164.3201 C.3     1  UNL1        0.0185
     27 C         137.5424  142.4694  162.9344 C.3     1  UNL1        0.0686
     28 N         138.2250  143.4176  161.9937 N.3     1  UNL1       -0.2972
     29 H         137.5582  143.7576  161.3007 H       1  UNL1        0.1233
@<TRIPOS>BOND
     1    14    15    1
     2    15    16   ar
     3    16    17   ar
     4    17    18   ar
     5    18    19   ar
     6    19    12    1
     7    12     1    1
     8     1     2   ar
     9     2     3   ar
    10     3    21    1
    11    21    23    1
    12    24    23    1
    13    24    25    1
    14    25    26    1
    15    26    27    1
    16    27    28    1
    17     3     4   ar
    18     4     5   ar
    19     5     6   ar
    20     6     7    1
    21     7     8   am
    22     7     9    2
    23    19    20   ar
    24    20    15   ar
    25     6     1   ar
    26    28    24    1
    27    12    13    1
    28    21    22    1
    29    28    29    1
    30     8    10    1
    31     8    11    1
@<TRIPOS>MOLECULE
*****
 29 31 0 0 0
SMALL
GASTEIGER

@<TRIPOS>ATOM
      1 C         139.4896  141.8497  164.6267 C.ar    1  UNL1        0.1409
      2 N         139.7935  140.3808  164.6365 N.ar    1  UNL1       -0.1986
      3 C         138.9003  139.4252  163.9023 C.ar    1  UNL1        0.2181
      4 N         137.7033  139.9385  163.1583 N.ar    1  UNL1       -0.2120
      5 C         137.3993  141.4073  163.1485 C.ar    1  UNL1        0.1091
      6 C         138.2925  142.3629  163.8827 C.ar    1  UNL1        0.1040
      7 C         137.9886  143.8318  163.8729 C.2     1  UNL1        0.2470
      8 N         137.5544  144.4993  162.6018 N.am    1  UNL1       -0.3252
      9 O         138.1189  144.6331  165.1343 O.2     1  UNL1       -0.2702
     10 H         137.4688  143.9734  161.7739 H       1  UNL1        0.1453
     11 H         137.3549  145.4634  162.5953 H       1  UNL1        0.1453
     12 N         140.3828  142.8053  165.3609 N.pl3   1  UNL1       -0.2977
     13 H         140.1378  143.1137  166.2632 H       1  UNL1        0.1536
     14 C         145.3425  142.0139  164.0286 C.3     1  UNL1        0.0311
     15 C         144.1291  142.8953  164.0542 C.ar    1  UNL1       -0.0206
     16 C         144.1820  144.2624  163.4393 C.ar    1  UNL1       -0.0042
     17 C         142.9686  145.1438  163.4649 C.ar    1  UNL1        0.0009
     18 C         141.7022  144.6581  164.1054 C.ar    1  UNL1        0.0146
     19 C         141.6492  143.2910  164.7203 C.ar    1  UNL1        0.0491
     20 C         142.8627  142.4096  164.6947 C.ar    1  UNL1        0.0104
     21 N         139.2042  137.9563  163.9121 N.pl3   1  UNL1       -0.3016
     22 H         138.4977  137.3060  163.6950 H       1  UNL1        0.1497
     23 C         140.5847  137.4783  164.2526 C.3     1  UNL1        0.1052
     24 C         141.7340  137.7954  163.3423 C.3     1  UNL1        0.0739
     25 C         142.9002  138.6800  163.6700 C.3     1  UNL1        0.0189
     26 C         143.8058  138.7149  162.4748 C.3     1  UNL1        0.0185
     27 C         143.1993  137.8518  161.4083 C.3     1  UNL1        0.0686
     28 N         141.9188  137.2836  161.9445 N.3     1  UNL1       -0.2972
     29 H         141.9689  136.2649  161.9527 H       1  UNL1        0.1233
@<TRIPOS>BOND
     1    14    15    1
     2    15    16   ar
     3    16    17   ar
     4    17    18   ar
     5    18    19   ar
     6    19    12    1
     7    12     1    1
     8     1     2   ar
     9     2     3   ar
    10     3    21    1
    11    21    23    1
    12    24    23    1
    13    24    25    1
    14    25    26    1
    15    26    27    1
    16    27    28    1
    17     3     4   ar
    18     4     5   ar
    19     5     6   ar
    20     6     7    1
    21     7     8   am
    22     7     9    2
    23    19    20   ar
    24    20    15   ar
    25     6     1   ar
    26    28    24    1
    27    12    13    1
    28    21    22    1
    29    28    29    1
    30     8    10    1
    31     8    11    1
@<TRIPOS>MOLECULE
*****
 29 31 0 0 0
SMALL
GASTEIGER

@<TRIPOS>ATOM
      1 C         141.2460  143.7404  164.1713 C.ar    1  UNL1        0.1409
      2 N         142.6760  143.5526  163.7591 N.ar    1  UNL1       -0.1986
      3 C         143.1528  144.0864  162.4408 C.ar    1  UNL1        0.2181
      4 N         142.1997  144.8080  161.5349 N.ar    1  UNL1       -0.2120
      5 C         140.7698  144.9959  161.9471 C.ar    1  UNL1        0.1091
      6 C         140.2929  144.4621  163.2653 C.ar    1  UNL1        0.1040
      7 C         138.8630  144.6499  163.6775 C.2     1  UNL1        0.2470
      8 N         137.7659  144.5113  162.6641 N.am    1  UNL1       -0.3252
      9 O         138.5301  144.9763  165.1033 O.2     1  UNL1       -0.2702
     10 H         137.9843  144.2971  161.7283 H       1  UNL1        0.1453
     11 H         136.8273  144.6346  162.9347 H       1  UNL1        0.1453
     12 N         140.7692  143.2066  165.4895 N.pl3   1  UNL1       -0.2977
     13 H         140.0863  143.6974  166.0013 H       1  UNL1        0.1536
     14 C         141.4250  138.0664  165.1042 C.3     1  UNL1        0.0311
     15 C         141.6607  139.3548  165.8352 C.ar    1  UNL1       -0.0206
     16 C         142.4600  139.3617  167.1044 C.ar    1  UNL1       -0.0042
     17 C         142.6957  140.6502  167.8354 C.ar    1  UNL1        0.0009
     18 C         142.1322  141.9318  167.2971 C.ar    1  UNL1        0.0146
     19 C         141.3328  141.9249  166.0278 C.ar    1  UNL1        0.0491
     20 C         141.0971  140.6364  165.2969 C.ar    1  UNL1        0.0104
     21 N         144.5828  143.8986  162.0286 N.pl3   1  UNL1       -0.3016
     22 H         145.2166  144.6491  162.0939 H       1  UNL1        0.1497
     23 C         145.0471  142.5672  161.5169 C.3     1  UNL1        0.1052
     24 C         144.8955  141.3419  162.3687 C.3     1  UNL1        0.0739
     25 C         145.4264  141.1643  163.7603 C.3     1  UNL1        0.0189
     26 C         145.0454  139.7917  164.2303 C.3     1  UNL1        0.0185
     27 C         144.2789  139.1210  163.1291 C.3     1  UNL1        0.0686
     28 N         144.1863  140.0790  161.9786 N.3     1  UNL1       -0.2972
     29 H         143.2075  140.2807  161.7741 H       1  UNL1        0.1233
@<TRIPOS>BOND
     1    14    15    1
     2    15    16   ar
     3    16    17   ar
     4    17    18   ar
     5    18    19   ar
     6    19    12    1
     7    12     1    1
     8     1     2   ar
     9     2     3   ar
    10     3    21    1
    11    21    23    1
    12    24    23    1
    13    24    25    1
    14    25    26    1
    15    26    27    1
    16    27    28    1
    17     3     4   ar
    18     4     5   ar
    19     5     6   ar
    20     6     7    1
    21     7     8   am
    22     7     9    2
    23    19    20   ar
    24    20    15   ar
    25     6     1   ar
    26    28    24    1
    27    12    13    1
    28    21    22    1
    29    28    29    1
    30     8    10    1
    31     8    11    1
@<TRIPOS>MOLECULE
*****
 29 31 0 0 0
SMALL
GASTEIGER

@<TRIPOS>ATOM
      1 C         138.0050  140.7169  164.0402 C.ar    1  UNL1        0.1409
      2 N         137.8173  142.2050  164.0540 N.ar    1  UNL1       -0.1986
      3 C         137.7724  142.9673  162.7628 C.ar    1  UNL1        0.2181
      4 N         137.9153  142.2414  161.4580 N.ar    1  UNL1       -0.2120
      5 C         138.1030  140.7533  161.4442 C.ar    1  UNL1        0.1091
      6 C         138.1479  139.9910  162.7353 C.ar    1  UNL1        0.1040
      7 C         138.3356  138.5029  162.7215 C.2     1  UNL1        0.2470
      8 N         137.6288  137.6672  161.6958 N.am    1  UNL1       -0.3252
      9 O         139.2301  137.8504  163.7336 O.2     1  UNL1       -0.2702
     10 H         137.0417  138.0955  161.0316 H       1  UNL1        0.1453
     11 H         137.7520  136.6905  161.6868 H       1  UNL1        0.1453
     12 N         138.0499  139.9546  165.3313 N.pl3   1  UNL1       -0.2977
     13 H         137.3282  139.3238  165.5558 H       1  UNL1        0.1536
     14 C         142.9462  141.4459  166.2266 C.3     1  UNL1        0.0311
     15 C         141.6425  140.8992  166.7280 C.ar    1  UNL1       -0.0206
     16 C         141.4832  140.5515  168.1784 C.ar    1  UNL1       -0.0042
     17 C         140.1794  140.0048  168.6798 C.ar    1  UNL1        0.0009
     18 C         139.0350  139.8058  167.7308 C.ar    1  UNL1        0.0146
     19 C         139.1943  140.1536  166.2804 C.ar    1  UNL1        0.0491
     20 C         140.4981  140.7003  165.7790 C.ar    1  UNL1        0.0104
     21 N         137.5847  144.4554  162.7766 N.pl3   1  UNL1       -0.3016
     22 H         136.7242  144.8405  163.0602 H       1  UNL1        0.1497
     23 C         138.7082  145.3570  162.3581 C.3     1  UNL1        0.1052
     24 C         140.1109  145.0624  162.8007 C.3     1  UNL1        0.0739
     25 C         140.5286  144.6231  164.1728 C.3     1  UNL1        0.0189
     26 C         142.0179  144.4445  164.1690 C.3     1  UNL1        0.0185
     27 C         142.5207  144.7734  162.7946 C.3     1  UNL1        0.0686
     28 N         141.3421  145.1552  161.9490 N.3     1  UNL1       -0.2972
     29 H         141.2636  144.5179  161.1565 H       1  UNL1        0.1233
@<TRIPOS>BOND
     1    14    15    1
     2    15    16   ar
     3    16    17   ar
     4    17    18   ar
     5    18    19   ar
     6    19    12    1
     7    12     1    1
     8     1     2   ar
     9     2     3   ar
    10     3    21    1
    11    21    23    1
    12    24    23    1
    13    24    25    1
    14    25    26    1
    15    26    27    1
    16    27    28    1
    17     3     4   ar
    18     4     5   ar
    19     5     6   ar
    20     6     7    1
    21     7     8   am
    22     7     9    2
    23    19    20   ar
    24    20    15   ar
    25     6     1   ar
    26    28    24    1
    27    12    13    1
    28    21    22    1
    29    28    29    1
    30     8    10    1
    31     8    11    1
@<TRIPOS>MOLECULE
*****
 29 31 0 0 0
SMALL
GASTEIGER

@<TRIPOS>ATOM
      1 C         142.0876  141.5395  161.3774 C.ar    1  UNL1        0.1409
      2 N         141.3009  142.7984  161.1622 N.ar    1  UNL1       -0.1986
      3 C         141.9546  144.1341  161.3589 C.ar    1  UNL1        0.2181
      4 N         143.3949  144.2109  161.7707 N.ar    1  UNL1       -0.2120
      5 C         144.1816  142.9520  161.9859 C.ar    1  UNL1        0.1091
      6 C         143.5280  141.6164  161.7892 C.ar    1  UNL1        0.1040
      7 C         144.3147  140.3575  162.0044 C.2     1  UNL1        0.2470
      8 N         145.1086  140.1752  163.2639 N.am    1  UNL1       -0.3252
      9 O         144.3075  139.2808  160.9600 O.2     1  UNL1       -0.2702
     10 H         145.1134  140.8819  163.9494 H       1  UNL1        0.1453
     11 H         145.6250  139.3490  163.4051 H       1  UNL1        0.1453
     12 N         141.4341  140.2038  161.1807 N.pl3   1  UNL1       -0.2977
     13 H         141.3573  139.8217  160.2766 H       1  UNL1        0.1536
     14 C         138.2503  139.9344  165.2784 C.3     1  UNL1        0.0311
     15 C         139.3056  139.3156  164.4103 C.ar    1  UNL1       -0.0206
     16 C         139.8242  137.9433  164.7230 C.ar    1  UNL1       -0.0042
     17 C         140.8794  137.3245  163.8549 C.ar    1  UNL1        0.0009
     18 C         141.4160  138.0780  162.6742 C.ar    1  UNL1        0.0146
     19 C         140.8974  139.4502  162.3615 C.ar    1  UNL1        0.0491
     20 C         139.8422  140.0690  163.2296 C.ar    1  UNL1        0.0104
     21 N         141.1679  145.3930  161.1437 N.pl3   1  UNL1       -0.3016
     22 H         141.2816  145.9086  160.3127 H       1  UNL1        0.1497
     23 C         140.2080  145.8664  162.1947 C.3     1  UNL1        0.1052
     24 C         139.2572  144.8977  162.8331 C.3     1  UNL1        0.0739
     25 C         138.9854  144.7674  164.3025 C.3     1  UNL1        0.0189
     26 C         137.9714  143.6784  164.4917 C.3     1  UNL1        0.0185
     27 C         137.6165  143.1355  163.1391 C.3     1  UNL1        0.0686
     28 N         138.4111  143.8891  162.1141 N.3     1  UNL1       -0.2972
     29 H         137.7807  144.3639  161.4679 H       1  UNL1        0.1233
@<TRIPOS>BOND
     1    14    15    1
     2    15    16   ar
     3    16    17   ar
     4    17    18   ar
     5    18    19   ar
     6    19    12    1
     7    12     1    1
     8     1     2   ar
     9     2     3   ar
    10     3    21    1
    11    21    23    1
    12    24    23    1
    13    24    25    1
    14    25    26    1
    15    26    27    1
    16    27    28    1
    17     3     4   ar
    18     4     5   ar
    19     5     6   ar
    20     6     7    1
    21     7     8   am
    22     7     9    2
    23    19    20   ar
    24    20    15   ar
    25     6     1   ar
    26    28    24    1
    27    12    13    1
    28    21    22    1
    29    28    29    1
    30     8    10    1
    31     8    11    1
@<TRIPOS>MOLECULE
*****
 29 31 0 0 0
SMALL
GASTEIGER

@<TRIPOS>ATOM
      1 C         140.7406  140.1441  167.6735 C.ar    1  UNL1        0.1409
      2 N         141.7088  139.6519  166.6388 N.ar    1  UNL1       -0.1986
      3 C         142.9466  138.9164  167.0596 C.ar    1  UNL1        0.2181
      4 N         143.2161  138.6730  168.5150 N.ar    1  UNL1       -0.2120
      5 C         142.2479  139.1652  169.5496 C.ar    1  UNL1        0.1091
      6 C         141.0102  139.9007  169.1289 C.ar    1  UNL1        0.1040
      7 C         140.0420  140.3928  170.1635 C.2     1  UNL1        0.2470
      8 N         139.6396  139.4994  171.2992 N.am    1  UNL1       -0.3252
      9 O         139.4763  141.7784  170.0624 O.2     1  UNL1       -0.2702
     10 H         140.0109  138.5900  171.3656 H       1  UNL1        0.1453
     11 H         139.0042  139.8224  171.9783 H       1  UNL1        0.1453
     12 N         139.5029  140.8795  167.2528 N.pl3   1  UNL1       -0.2977
     13 H         138.6621  140.7524  167.7489 H       1  UNL1        0.1536
     14 C         137.6940  142.3452  162.6074 C.3     1  UNL1        0.0311
     15 C         138.6416  142.5416  163.7533 C.ar    1  UNL1       -0.0206
     16 C         139.6325  143.6673  163.7227 C.ar    1  UNL1       -0.0042
     17 C         140.5802  143.8637  164.8687 C.ar    1  UNL1        0.0009
     18 C         140.5370  142.9345  166.0453 C.ar    1  UNL1        0.0146
     19 C         139.5461  141.8088  166.0760 C.ar    1  UNL1        0.0491
     20 C         138.5984  141.6124  164.9300 C.ar    1  UNL1        0.0104
     21 N         143.9147  138.4243  166.0250 N.pl3   1  UNL1       -0.3016
     22 H         144.6288  137.7958  166.2785 H       1  UNL1        0.1497
     23 C         143.7948  138.8898  164.6040 C.3     1  UNL1        0.1052
     24 C         144.3804  140.2087  164.1950 C.3     1  UNL1        0.0739
     25 C         144.1200  141.5312  164.8532 C.3     1  UNL1        0.0189
     26 C         144.9079  142.5767  164.1209 C.3     1  UNL1        0.0185
     27 C         145.6554  141.9003  163.0101 C.3     1  UNL1        0.0686
     28 N         145.3294  140.4369  163.0559 N.3     1  UNL1       -0.2972
     29 H         146.1821  139.8967  163.2023 H       1  UNL1        0.1233
@<TRIPOS>BOND
     1    14    15    1
     2    15    16   ar
     3    16    17   ar
     4    17    18   ar
     5    18    19   ar
     6    19    12    1
     7    12     1    1
     8     1     2   ar
     9     2     3   ar
    10     3    21    1
    11    21    23    1
    12    24    23    1
    13    24    25    1
    14    25    26    1
    15    26    27    1
    16    27    28    1
    17     3     4   ar
    18     4     5   ar
    19     5     6   ar
    20     6     7    1
    21     7     8   am
    22     7     9    2
    23    19    20   ar
    24    20    15   ar
    25     6     1   ar
    26    28    24    1
    27    12    13    1
    28    21    22    1
    29    28    29    1
    30     8    10    1
    31     8    11    1
