@<TRIPOS>MOLECULE
*****
 35 38 0 0 0
SMALL
GASTEIGER

@<TRIPOS>ATOM
      1 C         142.8681  137.1230  157.5846 C.ar    1  UNL1        0.1233
      2 C         142.4771  137.4147  159.0030 C.ar    1  UNL1        0.1181
      3 N         142.8833  138.8245  159.3152 N.ar    1  UNL1       -0.2208
      4 N         143.5254  139.4041  158.0897 N.ar    1  UNL1       -0.0633
      5 N         143.5160  138.3525  157.0201 N.ar    1  UNL1       -0.1287
      6 C         143.1723  133.3019  156.5566 C.ar    1  UNL1        0.1547
      7 C         143.3907  134.5959  157.2830 C.ar    1  UNL1        0.0400
      8 C         142.6496  135.8289  156.8581 C.ar    1  UNL1        0.0241
      9 C         141.6900  135.7678  155.7069 C.ar    1  UNL1        0.0033
     10 C         141.4716  134.4738  154.9805 C.ar    1  UNL1        0.0207
     11 C         142.2127  133.2408  155.4053 C.ar    1  UNL1        0.0994
     12 N         141.9942  131.9467  154.6788 N.ar    1  UNL1       -0.2839
     13 C         142.8667  131.3856  153.5954 C.ar    1  UNL1        0.1826
     14 N         142.2766  130.0787  153.1553 N.ar    1  UNL1       -0.2280
     15 C         141.0393  129.8321  153.9667 C.ar    1  UNL1        0.0786
     16 C         140.1353  128.6403  153.8560 C.3     1  UNL1        0.0538
     17 C         140.8648  130.9866  154.9083 C.ar    1  UNL1        0.0963
     18 C         145.1317  132.1875  157.8483 C.3     1  UNL1        0.2525
     19 O         143.9134  132.0689  156.9814 O.3     1  UNL1       -0.4700
     20 C         142.6827  139.5308  160.6233 C.3     1  UNL1        0.2138
     21 C         142.4968  138.7379  161.8829 C.2     1  UNL1        0.2510
     22 O         143.6839  138.3860  162.7298 O.2     1  UNL1       -0.2727
     23 N         141.1239  138.2969  162.2958 N.am    1  UNL1       -0.2660
     24 C         140.9379  137.5040  163.5555 C.3     1  UNL1        0.1205
     25 C         140.1895  138.0978  164.7119 C.ar    1  UNL1       -0.0023
     26 C         138.8746  137.5126  165.1344 C.ar    1  UNL1       -0.0026
     27 C         138.1263  138.1064  166.2908 C.ar    1  UNL1       -0.0003
     28 C         138.6928  139.2855  167.0247 C.ar    1  UNL1       -0.0000
     29 C         140.0077  139.8708  166.6023 C.ar    1  UNL1       -0.0003
     30 C         140.7561  139.2769  165.4459 C.ar    1  UNL1       -0.0026
     31 C         139.9368  138.6487  161.4489 C.3     1  UNL1        0.1976
     32 C         138.7847  139.3998  162.0474 C.3     1  UNL1        0.4157
     33 F         137.6324  140.1508  162.6459 F       1  UNL1       -0.1682
     34 F         139.6845  140.5706  162.3107 F       1  UNL1       -0.1682
     35 F         137.8847  138.2289  161.7841 F       1  UNL1       -0.1682
@<TRIPOS>BOND
     1    18    19    1
     2    19     6    1
     3     6     7   ar
     4     7     8   ar
     5     8     1    1
     6     1     2   ar
     7     2     3   ar
     8     3    20    1
     9    20    21    1
    10    21    22    2
    11    21    23   am
    12    23    24    1
    13    24    25    1
    14    25    26   ar
    15    26    27   ar
    16    27    28   ar
    17    28    29   ar
    18    29    30   ar
    19    23    31    1
    20    31    32    1
    21    32    33    1
    22    32    34    1
    23    32    35    1
    24     3     4   ar
    25     4     5   ar
    26     8     9   ar
    27     9    10   ar
    28    10    11   ar
    29    11    12    1
    30    12    13   ar
    31    13    14   ar
    32    14    15   ar
    33    15    16    1
    34    15    17   ar
    35    11     6   ar
    36    17    12   ar
    37     5     1   ar
    38    30    25   ar
@<TRIPOS>MOLECULE
*****
 35 38 0 0 0
SMALL
GASTEIGER

@<TRIPOS>ATOM
      1 C         140.0966  142.5185  160.1596 C.ar    1  UNL1        0.1233
      2 C         140.0945  142.1398  161.6109 C.ar    1  UNL1        0.1181
      3 N         138.7186  142.3902  162.1534 N.ar    1  UNL1       -0.2208
      4 N         137.8703  142.9236  161.0372 N.ar    1  UNL1       -0.0633
      5 N         138.7219  143.0029  159.8050 N.ar    1  UNL1       -0.1287
      6 C         143.0362  141.0021  157.9666 C.ar    1  UNL1        0.1547
      7 C         141.8652  141.0921  158.8996 C.ar    1  UNL1        0.0400
      8 C         141.2677  142.4286  159.2265 C.ar    1  UNL1        0.0241
      9 C         141.8412  143.6750  158.6204 C.ar    1  UNL1        0.0033
     10 C         143.0122  143.5851  157.6874 C.ar    1  UNL1        0.0207
     11 C         143.6097  142.2486  157.3605 C.ar    1  UNL1        0.0994
     12 N         144.7808  142.1587  156.4274 N.ar    1  UNL1       -0.2839
     13 C         144.7162  142.1581  154.9288 C.ar    1  UNL1        0.1826
     14 N         146.1175  142.0526  154.4044 N.ar    1  UNL1       -0.2280
     15 C         147.0484  141.9880  155.5790 C.ar    1  UNL1        0.0786
     16 C         148.5429  141.8772  155.5145 C.3     1  UNL1        0.0538
     17 C         146.2222  142.0535  156.8292 C.ar    1  UNL1        0.0963
     18 C         142.8233  138.4169  157.8223 C.3     1  UNL1        0.2525
     19 O         143.6338  139.6657  157.6396 O.3     1  UNL1       -0.4700
     20 C         138.2698  142.1494  163.5643 C.3     1  UNL1        0.2138
     21 C         139.2726  142.1445  164.6798 C.2     1  UNL1        0.2510
     22 O         139.7606  143.4411  165.2552 O.2     1  UNL1       -0.2727
     23 N         139.7873  140.8434  165.2200 N.am    1  UNL1       -0.2660
     24 C         140.7901  140.8386  166.3356 C.3     1  UNL1        0.1205
     25 C         140.3756  141.2461  167.7184 C.ar    1  UNL1       -0.0023
     26 C         139.5629  140.3109  168.5640 C.ar    1  UNL1       -0.0026
     27 C         139.1485  140.7185  169.9469 C.ar    1  UNL1       -0.0003
     28 C         139.5467  142.0611  170.4841 C.ar    1  UNL1       -0.0000
     29 C         140.3594  142.9963  169.6385 C.ar    1  UNL1       -0.0003
     30 C         140.7738  142.5888  168.2556 C.ar    1  UNL1       -0.0026
     31 C         139.2992  139.5469  164.6447 C.3     1  UNL1        0.1976
     32 C         138.5999  138.5525  165.5232 C.3     1  UNL1        0.4157
     33 F         137.9006  137.5580  166.4018 F       1  UNL1       -0.1682
     34 F         137.6106  139.6051  165.9273 F       1  UNL1       -0.1682
     35 F         139.5892  137.4998  165.1191 F       1  UNL1       -0.1682
@<TRIPOS>BOND
     1    18    19    1
     2    19     6    1
     3     6     7   ar
     4     7     8   ar
     5     8     1    1
     6     1     2   ar
     7     2     3   ar
     8     3    20    1
     9    20    21    1
    10    21    22    2
    11    21    23   am
    12    23    24    1
    13    24    25    1
    14    25    26   ar
    15    26    27   ar
    16    27    28   ar
    17    28    29   ar
    18    29    30   ar
    19    23    31    1
    20    31    32    1
    21    32    33    1
    22    32    34    1
    23    32    35    1
    24     3     4   ar
    25     4     5   ar
    26     8     9   ar
    27     9    10   ar
    28    10    11   ar
    29    11    12    1
    30    12    13   ar
    31    13    14   ar
    32    14    15   ar
    33    15    16    1
    34    15    17   ar
    35    11     6   ar
    36    17    12   ar
    37     5     1   ar
    38    30    25   ar
@<TRIPOS>MOLECULE
*****
 35 38 0 0 0
SMALL
GASTEIGER

@<TRIPOS>ATOM
      1 C         140.5058  144.3061  160.5545 C.ar    1  UNL1        0.1233
      2 C         139.7648  143.4780  161.5621 C.ar    1  UNL1        0.1181
      3 N         138.8010  144.3751  162.2806 N.ar    1  UNL1       -0.2208
      4 N         138.9463  145.7577  161.7170 N.ar    1  UNL1       -0.0633
      5 N         140.0000  145.7150  160.6503 N.ar    1  UNL1       -0.1287
      6 C         143.3584  142.0429  158.9763 C.ar    1  UNL1        0.1547
      7 C         142.2978  142.5370  159.9149 C.ar    1  UNL1        0.0400
      8 C         141.5665  143.8120  159.6159 C.ar    1  UNL1        0.0241
      9 C         141.8958  144.5930  158.3783 C.ar    1  UNL1        0.0033
     10 C         142.9564  144.0989  157.4398 C.ar    1  UNL1        0.0207
     11 C         143.6877  142.8238  157.7388 C.ar    1  UNL1        0.0994
     12 N         144.7484  142.3298  156.8001 N.ar    1  UNL1       -0.2839
     13 C         144.5138  141.6264  155.4962 C.ar    1  UNL1        0.1826
     14 N         145.8503  141.3143  154.8909 N.ar    1  UNL1       -0.2280
     15 C         146.9109  141.8248  155.8208 C.ar    1  UNL1        0.0786
     16 C         148.3924  141.7251  155.6080 C.3     1  UNL1        0.0538
     17 C         146.2299  142.4524  157.0007 C.ar    1  UNL1        0.0963
     18 C         143.7032  139.9433  160.4672 C.3     1  UNL1        0.2525
     19 O         144.0897  140.7678  159.2753 O.3     1  UNL1       -0.4700
     20 C         137.8575  143.9622  163.3712 C.3     1  UNL1        0.2138
     21 C         137.7995  142.5290  163.8100 C.2     1  UNL1        0.2510
     22 O         136.8955  141.5638  163.1019 O.2     1  UNL1       -0.2727
     23 N         138.6454  142.0609  164.9567 N.am    1  UNL1       -0.2660
     24 C         138.5875  140.6277  165.3956 C.3     1  UNL1        0.1205
     25 C         139.3724  139.5847  164.6566 C.ar    1  UNL1       -0.0023
     26 C         138.6928  138.7133  163.6422 C.ar    1  UNL1       -0.0026
     27 C         139.4777  137.6703  162.9033 C.ar    1  UNL1       -0.0003
     28 C         140.9422  137.4987  163.1786 C.ar    1  UNL1       -0.0000
     29 C         141.6218  138.3701  164.1930 C.ar    1  UNL1       -0.0003
     30 C         140.8368  139.4131  164.9319 C.ar    1  UNL1       -0.0026
     31 C         139.5494  143.0261  165.6648 C.3     1  UNL1        0.1976
     32 C         140.9911  142.6777  165.8881 C.3     1  UNL1        0.4157
     33 F         142.4329  142.3292  166.1115 F       1  UNL1       -0.1682
     34 F         141.2828  142.9582  164.4437 F       1  UNL1       -0.1682
     35 F         140.6996  142.3971  167.3326 F       1  UNL1       -0.1682
@<TRIPOS>BOND
     1    18    19    1
     2    19     6    1
     3     6     7   ar
     4     7     8   ar
     5     8     1    1
     6     1     2   ar
     7     2     3   ar
     8     3    20    1
     9    20    21    1
    10    21    22    2
    11    21    23   am
    12    23    24    1
    13    24    25    1
    14    25    26   ar
    15    26    27   ar
    16    27    28   ar
    17    28    29   ar
    18    29    30   ar
    19    23    31    1
    20    31    32    1
    21    32    33    1
    22    32    34    1
    23    32    35    1
    24     3     4   ar
    25     4     5   ar
    26     8     9   ar
    27     9    10   ar
    28    10    11   ar
    29    11    12    1
    30    12    13   ar
    31    13    14   ar
    32    14    15   ar
    33    15    16    1
    34    15    17   ar
    35    11     6   ar
    36    17    12   ar
    37     5     1   ar
    38    30    25   ar
@<TRIPOS>MOLECULE
*****
 35 38 0 0 0
SMALL
GASTEIGER

@<TRIPOS>ATOM
      1 C         143.2569  141.5986  160.8424 C.ar    1  UNL1        0.1233
      2 C         142.6520  141.7811  162.2028 C.ar    1  UNL1        0.1181
      3 N         143.1254  143.0959  162.7480 N.ar    1  UNL1       -0.2208
      4 N         144.0230  143.7259  161.7245 N.ar    1  UNL1       -0.0633
      5 N         144.1043  142.8005  160.5468 N.ar    1  UNL1       -0.1287
      6 C         143.1044  139.3742  157.5592 C.ar    1  UNL1        0.1547
      7 C         143.3105  140.5519  158.4650 C.ar    1  UNL1        0.0400
      8 C         143.0508  140.4208  159.9365 C.ar    1  UNL1        0.0241
      9 C         142.5850  139.1120  160.5022 C.ar    1  UNL1        0.0033
     10 C         142.3789  137.9343  159.5964 C.ar    1  UNL1        0.0207
     11 C         142.6386  138.0655  158.1249 C.ar    1  UNL1        0.0994
     12 N         142.4324  136.8877  157.2191 N.ar    1  UNL1       -0.2839
     13 C         141.2498  136.6593  156.3251 C.ar    1  UNL1        0.1826
     14 N         141.4592  135.3620  155.6018 N.ar    1  UNL1       -0.2280
     15 C         142.7713  134.7887  156.0486 C.ar    1  UNL1        0.0786
     16 C         143.3758  133.4989  155.5785 C.3     1  UNL1        0.0538
     17 C         143.3728  135.7316  157.0482 C.ar    1  UNL1        0.0963
     18 C         144.7717  139.6151  155.5814 C.3     1  UNL1        0.2525
     19 O         143.3641  139.5054  156.0877 O.3     1  UNL1       -0.4700
     20 C         142.7646  143.6784  164.0823 C.3     1  UNL1        0.2138
     21 C         142.2240  142.7930  165.1658 C.2     1  UNL1        0.2510
     22 O         143.1584  142.1653  166.1574 O.2     1  UNL1       -0.2727
     23 N         140.7493  142.5353  165.2578 N.am    1  UNL1       -0.2660
     24 C         140.2087  141.6499  166.3412 C.3     1  UNL1        0.1205
     25 C         139.7315  140.2667  166.0111 C.ar    1  UNL1       -0.0023
     26 C         138.5317  139.7003  166.7109 C.ar    1  UNL1       -0.0026
     27 C         138.0545  138.3170  166.3808 C.ar    1  UNL1       -0.0003
     28 C         138.7770  137.5002  165.3510 C.ar    1  UNL1       -0.0000
     29 C         139.9768  138.0666  164.6512 C.ar    1  UNL1       -0.0003
     30 C         140.4540  139.4498  164.9813 C.ar    1  UNL1       -0.0026
     31 C         139.8150  143.1630  164.2662 C.3     1  UNL1        0.1976
     32 C         138.5510  143.8187  164.7376 C.3     1  UNL1        0.4157
     33 F         137.2870  144.4744  165.2090 F       1  UNL1       -0.1682
     34 F         137.7747  142.5908  164.3641 F       1  UNL1       -0.1682
     35 F         139.3273  145.0467  165.1111 F       1  UNL1       -0.1682
@<TRIPOS>BOND
     1    18    19    1
     2    19     6    1
     3     6     7   ar
     4     7     8   ar
     5     8     1    1
     6     1     2   ar
     7     2     3   ar
     8     3    20    1
     9    20    21    1
    10    21    22    2
    11    21    23   am
    12    23    24    1
    13    24    25    1
    14    25    26   ar
    15    26    27   ar
    16    27    28   ar
    17    28    29   ar
    18    29    30   ar
    19    23    31    1
    20    31    32    1
    21    32    33    1
    22    32    34    1
    23    32    35    1
    24     3     4   ar
    25     4     5   ar
    26     8     9   ar
    27     9    10   ar
    28    10    11   ar
    29    11    12    1
    30    12    13   ar
    31    13    14   ar
    32    14    15   ar
    33    15    16    1
    34    15    17   ar
    35    11     6   ar
    36    17    12   ar
    37     5     1   ar
    38    30    25   ar
@<TRIPOS>MOLECULE
*****
 35 38 0 0 0
SMALL
GASTEIGER

@<TRIPOS>ATOM
      1 C         142.8501  137.2726  157.4027 C.ar    1  UNL1        0.1233
      2 C         142.2536  137.7074  158.7084 C.ar    1  UNL1        0.1181
      3 N         142.7575  139.0874  159.0115 N.ar    1  UNL1       -0.2208
      4 N         143.6654  139.5054  157.8930 N.ar    1  UNL1       -0.0633
      5 N         143.7226  138.3838  156.8987 N.ar    1  UNL1       -0.1287
      6 C         142.9725  133.3866  156.6064 C.ar    1  UNL1        0.1547
      7 C         143.2073  134.7017  157.2885 C.ar    1  UNL1        0.0400
      8 C         142.6152  135.9574  156.7205 C.ar    1  UNL1        0.0241
      9 C         141.7883  135.8980  155.4704 C.ar    1  UNL1        0.0033
     10 C         141.5535  134.5829  154.7884 C.ar    1  UNL1        0.0207
     11 C         142.1456  133.3272  155.3563 C.ar    1  UNL1        0.0994
     12 N         141.9108  132.0120  154.6742 N.ar    1  UNL1       -0.2839
     13 C         142.8108  131.3723  153.6589 C.ar    1  UNL1        0.1826
     14 N         142.1909  130.0706  153.2448 N.ar    1  UNL1       -0.2280
     15 C         140.9078  129.9059  154.0042 C.ar    1  UNL1        0.0786
     16 C         139.9637  128.7451  153.8987 C.3     1  UNL1        0.0538
     17 C         140.7347  131.1057  154.8876 C.ar    1  UNL1        0.0963
     18 C         144.9336  132.1575  157.7868 C.3     1  UNL1        0.2525
     19 O         143.5646  132.1309  157.1743 O.3     1  UNL1       -0.4700
     20 C         142.4138  139.9056  160.2208 C.3     1  UNL1        0.2138
     21 C         143.3301  139.9103  161.4084 C.2     1  UNL1        0.2510
     22 O         144.4520  140.9031  161.4863 O.2     1  UNL1       -0.2727
     23 N         143.1247  138.9223  162.5181 N.am    1  UNL1       -0.2660
     24 C         144.0409  138.9269  163.7057 C.3     1  UNL1        0.1205
     25 C         143.5718  139.4941  165.0128 C.ar    1  UNL1       -0.0023
     26 C         143.3110  138.5829  166.1753 C.ar    1  UNL1       -0.0026
     27 C         142.8419  139.1501  167.4824 C.ar    1  UNL1       -0.0003
     28 C         142.6337  140.6285  167.6268 C.ar    1  UNL1       -0.0000
     29 C         142.8946  141.5397  166.4642 C.ar    1  UNL1       -0.0003
     30 C         143.3637  140.9725  165.1572 C.ar    1  UNL1       -0.0026
     31 C         142.0028  137.9295  162.4402 C.3     1  UNL1        0.1976
     32 C         140.9294  137.9269  163.4879 C.3     1  UNL1        0.4157
     33 F         139.8560  137.9242  164.5357 F       1  UNL1       -0.1682
     34 F         140.6252  139.3631  163.1799 F       1  UNL1       -0.1682
     35 F         141.2337  136.4907  163.7960 F       1  UNL1       -0.1682
@<TRIPOS>BOND
     1    18    19    1
     2    19     6    1
     3     6     7   ar
     4     7     8   ar
     5     8     1    1
     6     1     2   ar
     7     2     3   ar
     8     3    20    1
     9    20    21    1
    10    21    22    2
    11    21    23   am
    12    23    24    1
    13    24    25    1
    14    25    26   ar
    15    26    27   ar
    16    27    28   ar
    17    28    29   ar
    18    29    30   ar
    19    23    31    1
    20    31    32    1
    21    32    33    1
    22    32    34    1
    23    32    35    1
    24     3     4   ar
    25     4     5   ar
    26     8     9   ar
    27     9    10   ar
    28    10    11   ar
    29    11    12    1
    30    12    13   ar
    31    13    14   ar
    32    14    15   ar
    33    15    16    1
    34    15    17   ar
    35    11     6   ar
    36    17    12   ar
    37     5     1   ar
    38    30    25   ar
@<TRIPOS>MOLECULE
*****
 35 38 0 0 0
SMALL
GASTEIGER

@<TRIPOS>ATOM
      1 C         140.0572  141.3242  158.9574 C.ar    1  UNL1        0.1233
      2 C         140.7998  142.2084  159.9147 C.ar    1  UNL1        0.1181
      3 N         139.8603  143.2820  160.3781 N.ar    1  UNL1       -0.2208
      4 N         138.5370  143.0612  159.7072 N.ar    1  UNL1       -0.0633
      5 N         138.6587  141.8512  158.8291 N.ar    1  UNL1       -0.1287
      6 C         142.5865  138.9376  157.0451 C.ar    1  UNL1        0.1547
      7 C         142.0286  140.1381  157.7504 C.ar    1  UNL1        0.0400
      8 C         140.6151  140.1236  158.2520 C.ar    1  UNL1        0.0241
      9 C         139.7595  138.9085  158.0485 C.ar    1  UNL1        0.0033
     10 C         140.3174  137.7080  157.3432 C.ar    1  UNL1        0.0207
     11 C         141.7309  137.7226  156.8415 C.ar    1  UNL1        0.0994
     12 N         142.2888  136.5220  156.1362 N.ar    1  UNL1       -0.2839
     13 C         142.3099  136.3017  154.6526 C.ar    1  UNL1        0.1826
     14 N         142.9577  134.9745  154.3902 N.ar    1  UNL1       -0.2280
     15 C         143.3370  134.3744  155.7116 C.ar    1  UNL1        0.0786
     16 C         144.0112  133.0505  155.9178 C.3     1  UNL1        0.0538
     17 C         142.9236  135.3308  156.7907 C.ar    1  UNL1        0.0963
     18 C         144.7363  140.2525  156.4131 C.3     1  UNL1        0.2525
     19 O         144.0001  138.9522  156.5434 O.3     1  UNL1       -0.4700
     20 C         140.1868  144.3831  161.3431 C.3     1  UNL1        0.2138
     21 C         141.4071  144.2835  162.2097 C.2     1  UNL1        0.2510
     22 O         142.7541  144.6357  161.6514 O.2     1  UNL1       -0.2727
     23 N         141.2805  143.8320  163.6344 N.am    1  UNL1       -0.2660
     24 C         142.5007  143.7325  164.5010 C.3     1  UNL1        0.1205
     25 C         143.4058  142.5416  164.3880 C.ar    1  UNL1       -0.0023
     26 C         144.7949  142.7041  163.8456 C.ar    1  UNL1       -0.0026
     27 C         145.6999  141.5133  163.7326 C.ar    1  UNL1       -0.0003
     28 C         145.2160  140.1600  164.1620 C.ar    1  UNL1       -0.0000
     29 C         143.8270  139.9975  164.7044 C.ar    1  UNL1       -0.0003
     30 C         142.9219  141.1884  164.8174 C.ar    1  UNL1       -0.0026
     31 C         139.9334  143.4799  164.1926 C.3     1  UNL1        0.1976
     32 C         139.2450  144.4183  165.1388 C.3     1  UNL1        0.4157
     33 F         138.5565  145.3567  166.0850 F       1  UNL1       -0.1682
     34 F         139.8068  143.6569  166.3028 F       1  UNL1       -0.1682
     35 F         138.6831  145.1797  163.9749 F       1  UNL1       -0.1682
@<TRIPOS>BOND
     1    18    19    1
     2    19     6    1
     3     6     7   ar
     4     7     8   ar
     5     8     1    1
     6     1     2   ar
     7     2     3   ar
     8     3    20    1
     9    20    21    1
    10    21    22    2
    11    21    23   am
    12    23    24    1
    13    24    25    1
    14    25    26   ar
    15    26    27   ar
    16    27    28   ar
    17    28    29   ar
    18    29    30   ar
    19    23    31    1
    20    31    32    1
    21    32    33    1
    22    32    34    1
    23    32    35    1
    24     3     4   ar
    25     4     5   ar
    26     8     9   ar
    27     9    10   ar
    28    10    11   ar
    29    11    12    1
    30    12    13   ar
    31    13    14   ar
    32    14    15   ar
    33    15    16    1
    34    15    17   ar
    35    11     6   ar
    36    17    12   ar
    37     5     1   ar
    38    30    25   ar
@<TRIPOS>MOLECULE
*****
 35 38 0 0 0
SMALL
GASTEIGER

@<TRIPOS>ATOM
      1 C         142.8958  137.2345  157.1189 C.ar    1  UNL1        0.1233
      2 C         142.2376  137.7897  158.3471 C.ar    1  UNL1        0.1181
      3 N         142.7600  139.1788  158.5652 N.ar    1  UNL1       -0.2208
      4 N         143.7411  139.4821  157.4717 N.ar    1  UNL1       -0.0633
      5 N         143.8249  138.2805  156.5779 N.ar    1  UNL1       -0.1287
      6 C         142.9938  133.2971  156.6317 C.ar    1  UNL1        0.1547
      7 C         143.2242  134.6591  157.2163 C.ar    1  UNL1        0.0400
      8 C         142.6652  135.8725  156.5342 C.ar    1  UNL1        0.0241
      9 C         141.8757  135.7238  155.2675 C.ar    1  UNL1        0.0033
     10 C         141.6452  134.3619  154.6829 C.ar    1  UNL1        0.0207
     11 C         142.2042  133.1485  155.3650 C.ar    1  UNL1        0.0994
     12 N         141.9737  131.7864  154.7804 N.ar    1  UNL1       -0.2839
     13 C         142.9681  130.9846  153.9941 C.ar    1  UNL1        0.1826
     14 N         142.3173  129.6898  153.6072 N.ar    1  UNL1       -0.2280
     15 C         140.9205  129.6913  154.1543 C.ar    1  UNL1        0.0786
     16 C         139.9131  128.5904  154.0029 C.3     1  UNL1        0.0538
     17 C         140.7083  130.9871  154.8793 C.ar    1  UNL1        0.0963
     18 C         145.0374  131.9136  157.4437 C.3     1  UNL1        0.2525
     19 O         143.5528  132.0838  157.3138 O.3     1  UNL1       -0.4700
     20 C         142.3699  140.1024  159.6809 C.3     1  UNL1        0.2138
     21 C         143.3567  141.1024  160.2065 C.2     1  UNL1        0.2510
     22 O         143.4871  142.4444  159.5490 O.2     1  UNL1       -0.2727
     23 N         144.2131  140.7606  161.3895 N.am    1  UNL1       -0.2660
     24 C         145.1999  141.7605  161.9151 C.3     1  UNL1        0.1205
     25 C         144.7653  142.7868  162.9191 C.ar    1  UNL1       -0.0023
     26 C         144.1254  144.0628  162.4583 C.ar    1  UNL1       -0.0026
     27 C         143.6908  145.0890  163.4623 C.ar    1  UNL1       -0.0003
     28 C         143.8961  144.8393  164.9270 C.ar    1  UNL1       -0.0000
     29 C         144.5360  143.5633  165.3878 C.ar    1  UNL1       -0.0003
     30 C         144.9706  142.5370  164.3838 C.ar    1  UNL1       -0.0026
     31 C         144.0827  139.4186  162.0470 C.3     1  UNL1        0.1976
     32 C         143.6384  139.3237  163.4765 C.3     1  UNL1        0.4157
     33 F         143.1942  139.2288  164.9060 F       1  UNL1       -0.1682
     34 F         142.2176  139.5455  163.0497 F       1  UNL1       -0.1682
     35 F         145.0593  139.1019  163.9033 F       1  UNL1       -0.1682
@<TRIPOS>BOND
     1    18    19    1
     2    19     6    1
     3     6     7   ar
     4     7     8   ar
     5     8     1    1
     6     1     2   ar
     7     2     3   ar
     8     3    20    1
     9    20    21    1
    10    21    22    2
    11    21    23   am
    12    23    24    1
    13    24    25    1
    14    25    26   ar
    15    26    27   ar
    16    27    28   ar
    17    28    29   ar
    18    29    30   ar
    19    23    31    1
    20    31    32    1
    21    32    33    1
    22    32    34    1
    23    32    35    1
    24     3     4   ar
    25     4     5   ar
    26     8     9   ar
    27     9    10   ar
    28    10    11   ar
    29    11    12    1
    30    12    13   ar
    31    13    14   ar
    32    14    15   ar
    33    15    16    1
    34    15    17   ar
    35    11     6   ar
    36    17    12   ar
    37     5     1   ar
    38    30    25   ar
@<TRIPOS>MOLECULE
*****
 35 38 0 0 0
SMALL
GASTEIGER

@<TRIPOS>ATOM
      1 C         143.4252  141.1084  160.8064 C.ar    1  UNL1        0.1233
      2 C         142.7889  141.2819  162.1536 C.ar    1  UNL1        0.1181
      3 N         143.3207  142.5477  162.7578 N.ar    1  UNL1       -0.2208
      4 N         144.2857  143.1565  161.7840 N.ar    1  UNL1       -0.0633
      5 N         144.3502  142.2669  160.5780 N.ar    1  UNL1       -0.1287
      6 C         143.0433  139.0680  157.4239 C.ar    1  UNL1        0.1547
      7 C         143.2889  140.2010  158.3757 C.ar    1  UNL1        0.0400
      8 C         143.1795  139.9753  159.8546 C.ar    1  UNL1        0.0241
      9 C         142.8246  138.6166  160.3817 C.ar    1  UNL1        0.0033
     10 C         142.5790  137.4836  159.4300 C.ar    1  UNL1        0.0207
     11 C         142.6883  137.7093  157.9511 C.ar    1  UNL1        0.0994
     12 N         142.4427  136.5762  156.9993 N.ar    1  UNL1       -0.2839
     13 C         141.2637  136.4343  156.0829 C.ar    1  UNL1        0.1826
     14 N         141.4253  135.1564  155.3141 N.ar    1  UNL1       -0.2280
     15 C         142.7043  134.5086  155.7554 C.ar    1  UNL1        0.0786
     16 C         143.2573  133.2111  155.2448 C.3     1  UNL1        0.0538
     17 C         143.3330  135.3860  156.7969 C.ar    1  UNL1        0.0963
     18 C         144.5000  139.3084  155.2862 C.3     1  UNL1        0.2525
     19 O         143.1526  139.2937  155.9451 O.3     1  UNL1       -0.4700
     20 C         142.9522  143.1066  164.1002 C.3     1  UNL1        0.2138
     21 C         142.3705  142.2094  165.1521 C.2     1  UNL1        0.2510
     22 O         143.2742  141.5038  166.1195 O.2     1  UNL1       -0.2727
     23 N         140.8853  142.0177  165.2369 N.am    1  UNL1       -0.2660
     24 C         140.3036  141.1205  166.2888 C.3     1  UNL1        0.1205
     25 C         140.1745  141.6070  167.7019 C.ar    1  UNL1       -0.0023
     26 C         140.4920  143.0345  168.0355 C.ar    1  UNL1       -0.0026
     27 C         140.3629  143.5211  169.4486 C.ar    1  UNL1       -0.0003
     28 C         139.9163  142.5801  170.5279 C.ar    1  UNL1       -0.0000
     29 C         139.5988  141.1525  170.1943 C.ar    1  UNL1       -0.0003
     30 C         139.7279  140.6660  168.7812 C.ar    1  UNL1       -0.0026
     31 C         139.9817  142.7233  164.2695 C.3     1  UNL1        0.1976
     32 C         138.9478  143.6856  164.7741 C.3     1  UNL1        0.4157
     33 F         137.9137  144.6480  165.2788 F       1  UNL1       -0.1682
     34 F         140.0035  144.7402  164.9264 F       1  UNL1       -0.1682
     35 F         137.8919  142.6310  164.6219 F       1  UNL1       -0.1682
@<TRIPOS>BOND
     1    18    19    1
     2    19     6    1
     3     6     7   ar
     4     7     8   ar
     5     8     1    1
     6     1     2   ar
     7     2     3   ar
     8     3    20    1
     9    20    21    1
    10    21    22    2
    11    21    23   am
    12    23    24    1
    13    24    25    1
    14    25    26   ar
    15    26    27   ar
    16    27    28   ar
    17    28    29   ar
    18    29    30   ar
    19    23    31    1
    20    31    32    1
    21    32    33    1
    22    32    34    1
    23    32    35    1
    24     3     4   ar
    25     4     5   ar
    26     8     9   ar
    27     9    10   ar
    28    10    11   ar
    29    11    12    1
    30    12    13   ar
    31    13    14   ar
    32    14    15   ar
    33    15    16    1
    34    15    17   ar
    35    11     6   ar
    36    17    12   ar
    37     5     1   ar
    38    30    25   ar
@<TRIPOS>MOLECULE
*****
 35 38 0 0 0
SMALL
GASTEIGER

@<TRIPOS>ATOM
      1 C         140.1484  142.5864  160.1824 C.ar    1  UNL1        0.1233
      2 C         140.1306  142.3374  161.6614 C.ar    1  UNL1        0.1181
      3 N         138.7638  142.6837  162.1733 N.ar    1  UNL1       -0.2208
      4 N         137.9369  143.1467  161.0106 N.ar    1  UNL1       -0.0633
      5 N         138.7927  143.0865  159.7801 N.ar    1  UNL1       -0.1287
      6 C         142.6968  143.0722  157.1791 C.ar    1  UNL1        0.1547
      7 C         141.5284  143.2858  158.0951 C.ar    1  UNL1        0.0400
      8 C         141.3169  142.3728  159.2663 C.ar    1  UNL1        0.0241
      9 C         142.2738  141.2462  159.5214 C.ar    1  UNL1        0.0033
     10 C         143.4422  141.0326  158.6054 C.ar    1  UNL1        0.0207
     11 C         143.6537  141.9456  157.4342 C.ar    1  UNL1        0.0994
     12 N         144.8222  141.7320  156.5181 N.ar    1  UNL1       -0.2839
     13 C         144.7699  141.1164  155.1513 C.ar    1  UNL1        0.1826
     14 N         146.1635  141.1004  154.5965 N.ar    1  UNL1       -0.2280
     15 C         147.0770  141.7062  155.6206 C.ar    1  UNL1        0.0786
     16 C         148.5593  141.8894  155.4814 C.3     1  UNL1        0.0538
     17 C         146.2480  142.0965  156.8081 C.ar    1  UNL1        0.0963
     18 C         141.7299  144.6075  155.3195 C.3     1  UNL1        0.2525
     19 O         142.9084  143.9852  156.0079 O.3     1  UNL1       -0.4700
     20 C         138.3046  142.5844  163.5979 C.3     1  UNL1        0.2138
     21 C         139.3107  142.5566  164.7101 C.2     1  UNL1        0.2510
     22 O         139.7595  143.8382  165.3476 O.2     1  UNL1       -0.2727
     23 N         139.8679  141.2474  165.1848 N.am    1  UNL1       -0.2660
     24 C         140.8740  141.2196  166.2970 C.3     1  UNL1        0.1205
     25 C         140.4436  141.5060  167.7051 C.ar    1  UNL1       -0.0023
     26 C         140.7875  142.8198  168.3420 C.ar    1  UNL1       -0.0026
     27 C         140.3570  143.1062  169.7501 C.ar    1  UNL1       -0.0003
     28 C         139.5827  142.0788  170.5213 C.ar    1  UNL1       -0.0000
     29 C         139.2388  140.7650  169.8844 C.ar    1  UNL1       -0.0003
     30 C         139.6692  140.4786  168.4763 C.ar    1  UNL1       -0.0026
     31 C         139.4191  139.9659  164.5472 C.3     1  UNL1        0.1976
     32 C         138.8199  138.8789  165.3893 C.3     1  UNL1        0.4157
     33 F         138.2206  137.7919  166.2315 F       1  UNL1       -0.1682
     34 F         140.0073  138.0066  165.1084 F       1  UNL1       -0.1682
     35 F         137.6323  139.7513  165.6703 F       1  UNL1       -0.1682
@<TRIPOS>BOND
     1    18    19    1
     2    19     6    1
     3     6     7   ar
     4     7     8   ar
     5     8     1    1
     6     1     2   ar
     7     2     3   ar
     8     3    20    1
     9    20    21    1
    10    21    22    2
    11    21    23   am
    12    23    24    1
    13    24    25    1
    14    25    26   ar
    15    26    27   ar
    16    27    28   ar
    17    28    29   ar
    18    29    30   ar
    19    23    31    1
    20    31    32    1
    21    32    33    1
    22    32    34    1
    23    32    35    1
    24     3     4   ar
    25     4     5   ar
    26     8     9   ar
    27     9    10   ar
    28    10    11   ar
    29    11    12    1
    30    12    13   ar
    31    13    14   ar
    32    14    15   ar
    33    15    16    1
    34    15    17   ar
    35    11     6   ar
    36    17    12   ar
    37     5     1   ar
    38    30    25   ar
