@<TRIPOS>MOLECULE
*****
 34 37 0 0 0
SMALL
GASTEIGER

@<TRIPOS>ATOM
      1 N         142.1173  139.2051  161.9867 N.3     1  UNL1       -0.2727
      2 C         141.8606  140.6809  162.0632 C.3     1  UNL1        0.0722
      3 C         141.7879  141.3614  163.3980 C.3     1  UNL1        0.0204
      4 C         141.9719  140.5660  164.6564 C.3     1  UNL1        0.0353
      5 C         142.2286  139.0900  164.5799 C.3     1  UNL1        0.0204
      6 C         142.3013  138.4096  163.2451 C.3     1  UNL1        0.0722
      7 C         141.8993  141.2464  165.9912 C.3     1  UNL1        0.1256
      8 O         141.4790  139.9544  166.6269 O.3     1  UNL1       -0.3786
      9 H         140.7367  140.1171  167.2297 H       1  UNL1        0.2111
     10 C         141.8266  141.9269  167.3260 C.ar    1  UNL1        0.0056
     11 C         140.5675  142.6272  167.7432 C.ar    1  UNL1       -0.0017
     12 C         140.4948  143.3076  169.0781 C.ar    1  UNL1       -0.0002
     13 C         141.6812  143.2878  169.9956 C.ar    1  UNL1       -0.0000
     14 C         142.9405  142.5874  169.5783 C.ar    1  UNL1       -0.0002
     15 C         143.0131  141.9070  168.2435 C.ar    1  UNL1       -0.0017
     16 C         142.3195  142.5384  165.3554 C.ar    1  UNL1        0.0056
     17 C         141.2828  143.5001  164.8550 C.ar    1  UNL1       -0.0017
     18 C         141.7030  144.7921  164.2192 C.ar    1  UNL1       -0.0002
     19 C         143.1599  145.1224  164.0839 C.ar    1  UNL1       -0.0000
     20 C         144.1965  144.1607  164.5843 C.ar    1  UNL1       -0.0002
     21 C         143.7763  142.8687  165.2201 C.ar    1  UNL1       -0.0017
     22 C         142.1899  138.5246  160.6519 C.3     1  UNL1        0.0721
     23 C         140.9679  138.4391  159.7862 C.3     1  UNL1        0.0177
     24 C         139.6403  138.0963  160.3945 C.3     1  UNL1        0.0061
     25 C         138.8521  139.1485  161.1167 C.3     1  UNL1        0.0264
     26 C         138.2796  138.8697  165.5714 C.ar    1  UNL1        0.0140
     27 C         138.0916  140.1831  164.8718 C.ar    1  UNL1        0.0008
     28 C         138.2825  140.2761  163.3869 C.ar    1  UNL1       -0.0042
     29 C         138.6613  139.0555  162.6016 C.ar    1  UNL1       -0.0222
     30 C         138.8493  137.7421  163.3012 C.ar    1  UNL1       -0.0042
     31 C         138.6585  137.6492  164.7861 C.ar    1  UNL1        0.0008
     32 O         139.0257  139.4978  167.9795 O.co2   1  UNL1       -0.5446
     33 C         138.0888  138.7768  167.0563 C.2     1  UNL1        0.0729
     34 O         136.9610  137.9628  167.6181 O.co2   1  UNL1       -0.5446
@<TRIPOS>UNITY_ATOM_ATTR
32 1
charge -1
@<TRIPOS>BOND
     1    32    33   ar
     2    33    34   ar
     3    33    26    1
     4    26    27   ar
     5    27    28   ar
     6    28    29   ar
     7    29    25    1
     8    25    24    1
     9    24    23    1
    10    23    22    1
    11    22     1    1
    12     1     2    1
    13     2     3    1
    14     3     4    1
    15     4     7    1
    16     7     8    1
    17     7    10    1
    18    10    11   ar
    19    11    12   ar
    20    12    13   ar
    21    13    14   ar
    22    14    15   ar
    23     7    16    1
    24    16    17   ar
    25    17    18   ar
    26    18    19   ar
    27    19    20   ar
    28    20    21   ar
    29     4     5    1
    30     5     6    1
    31    29    30   ar
    32    30    31   ar
    33    31    26   ar
    34     6     1    1
    35    15    10   ar
    36    21    16   ar
    37     8     9    1
@<TRIPOS>MOLECULE
*****
 34 37 0 0 0
SMALL
GASTEIGER

@<TRIPOS>ATOM
      1 N         139.1463  138.4926  163.9143 N.3     1  UNL1       -0.2727
      2 C         140.5465  138.2145  164.3748 C.3     1  UNL1        0.0722
      3 C         141.1450  139.0240  165.4868 C.3     1  UNL1        0.0204
      4 C         140.3433  140.1115  166.1383 C.3     1  UNL1        0.0353
      5 C         138.9430  140.3897  165.6778 C.3     1  UNL1        0.0204
      6 C         138.3445  139.5802  164.5658 C.3     1  UNL1        0.0722
      7 C         140.9418  140.9210  167.2503 C.3     1  UNL1        0.1256
      8 O         140.5321  139.8683  168.2372 O.3     1  UNL1       -0.3786
      9 H         140.1352  140.2910  169.0147 H       1  UNL1        0.2111
     10 C         141.5404  141.7305  168.3623 C.ar    1  UNL1        0.0056
     11 C         142.9302  141.4336  168.8421 C.ar    1  UNL1       -0.0017
     12 C         143.5287  142.2430  169.9541 C.ar    1  UNL1       -0.0002
     13 C         142.7374  143.3494  170.5863 C.ar    1  UNL1       -0.0000
     14 C         141.3475  143.6464  170.1065 C.ar    1  UNL1       -0.0002
     15 C         140.7490  142.8369  168.9945 C.ar    1  UNL1       -0.0017
     16 C         141.3516  141.9737  166.2634 C.ar    1  UNL1        0.0056
     17 C         142.7976  142.1398  165.9010 C.ar    1  UNL1       -0.0017
     18 C         143.2073  143.1926  164.9142 C.ar    1  UNL1       -0.0002
     19 C         142.1710  144.0792  164.2897 C.ar    1  UNL1       -0.0000
     20 C         140.7250  143.9131  164.6521 C.ar    1  UNL1       -0.0002
     21 C         140.3153  142.8603  165.6390 C.ar    1  UNL1       -0.0017
     22 C         138.5477  137.6831  162.8023 C.3     1  UNL1        0.0721
     23 C         137.8623  138.3709  161.6589 C.3     1  UNL1        0.0177
     24 C         138.6744  139.0597  160.6025 C.3     1  UNL1        0.0061
     25 C         140.0337  138.5377  160.2422 C.3     1  UNL1        0.0264
     26 C         143.6670  140.0067  162.4537 C.ar    1  UNL1        0.0140
     27 C         142.4597  140.8876  162.3260 C.ar    1  UNL1        0.0008
     28 C         141.2486  140.3979  161.5888 C.ar    1  UNL1       -0.0042
     29 C         141.2448  139.0274  160.9793 C.ar    1  UNL1       -0.0222
     30 C         142.4521  138.1465  161.1070 C.ar    1  UNL1       -0.0042
     31 C         143.6632  138.6361  161.8442 C.ar    1  UNL1        0.0008
     32 O         145.7200  141.5916  162.6065 O.co2   1  UNL1       -0.5446
     33 C         144.8781  140.4963  163.1909 C.2     1  UNL1        0.0729
     34 O         145.2474  139.8907  164.5125 O.co2   1  UNL1       -0.5446
@<TRIPOS>UNITY_ATOM_ATTR
32 1
charge -1
@<TRIPOS>BOND
     1    32    33   ar
     2    33    34   ar
     3    33    26    1
     4    26    27   ar
     5    27    28   ar
     6    28    29   ar
     7    29    25    1
     8    25    24    1
     9    24    23    1
    10    23    22    1
    11    22     1    1
    12     1     2    1
    13     2     3    1
    14     3     4    1
    15     4     7    1
    16     7     8    1
    17     7    10    1
    18    10    11   ar
    19    11    12   ar
    20    12    13   ar
    21    13    14   ar
    22    14    15   ar
    23     7    16    1
    24    16    17   ar
    25    17    18   ar
    26    18    19   ar
    27    19    20   ar
    28    20    21   ar
    29     4     5    1
    30     5     6    1
    31    29    30   ar
    32    30    31   ar
    33    31    26   ar
    34     6     1    1
    35    15    10   ar
    36    21    16   ar
    37     8     9    1
@<TRIPOS>MOLECULE
*****
 34 37 0 0 0
SMALL
GASTEIGER

@<TRIPOS>ATOM
      1 N         143.6883  138.6283  162.6419 N.3     1  UNL1       -0.2727
      2 C         142.2908  138.5464  163.1804 C.3     1  UNL1        0.0722
      3 C         141.9073  139.3394  164.3946 C.3     1  UNL1        0.0204
      4 C         142.9213  140.2142  165.0701 C.3     1  UNL1        0.0353
      5 C         144.3189  140.2961  164.5316 C.3     1  UNL1        0.0204
      6 C         144.7025  139.5031  163.3175 C.3     1  UNL1        0.0722
      7 C         142.5377  141.0072  166.2842 C.3     1  UNL1        0.1256
      8 O         142.3702  139.7355  167.0619 O.3     1  UNL1       -0.3786
      9 H         141.5474  139.7758  167.5740 H       1  UNL1        0.2111
     10 C         142.1542  141.8002  167.4983 C.ar    1  UNL1        0.0056
     11 C         140.7880  142.4121  167.5937 C.ar    1  UNL1       -0.0017
     12 C         140.4045  143.2051  168.8078 C.ar    1  UNL1       -0.0002
     13 C         141.3871  143.3862  169.9266 C.ar    1  UNL1       -0.0000
     14 C         142.7534  142.7743  169.8312 C.ar    1  UNL1       -0.0002
     15 C         143.1369  141.9813  168.6171 C.ar    1  UNL1       -0.0017
     16 C         142.7053  142.2789  165.5066 C.ar    1  UNL1        0.0056
     17 C         141.6115  142.7501  164.5947 C.ar    1  UNL1       -0.0017
     18 C         141.7791  144.0217  163.8171 C.ar    1  UNL1       -0.0002
     19 C         143.0404  144.8223  163.9513 C.ar    1  UNL1       -0.0000
     20 C         144.1342  144.3511  164.8632 C.ar    1  UNL1       -0.0002
     21 C         143.9667  143.0794  165.6408 C.ar    1  UNL1       -0.0017
     22 C         144.0719  137.8353  161.4278 C.3     1  UNL1        0.0721
     23 C         143.0199  137.4099  160.4467 C.3     1  UNL1        0.0177
     24 C         142.7320  138.2560  159.2420 C.3     1  UNL1        0.0061
     25 C         141.3298  138.7087  158.9613 C.3     1  UNL1        0.0264
     26 C         138.7368  140.2135  162.3172 C.ar    1  UNL1        0.0140
     27 C         139.7925  141.1019  161.7288 C.ar    1  UNL1        0.0008
     28 C         140.6568  140.6003  160.6102 C.ar    1  UNL1       -0.0042
     29 C         140.4654  139.2103  160.0799 C.ar    1  UNL1       -0.0222
     30 C         139.4098  138.3219  160.6683 C.ar    1  UNL1       -0.0042
     31 C         138.5455  138.8235  161.7869 C.ar    1  UNL1        0.0008
     32 O         137.9923  140.1126  164.8042 O.co2   1  UNL1       -0.5446
     33 C         137.8725  140.7151  163.4358 C.2     1  UNL1        0.0729
     34 O         136.8883  141.8192  163.1860 O.co2   1  UNL1       -0.5446
@<TRIPOS>UNITY_ATOM_ATTR
32 1
charge -1
@<TRIPOS>BOND
     1    32    33   ar
     2    33    34   ar
     3    33    26    1
     4    26    27   ar
     5    27    28   ar
     6    28    29   ar
     7    29    25    1
     8    25    24    1
     9    24    23    1
    10    23    22    1
    11    22     1    1
    12     1     2    1
    13     2     3    1
    14     3     4    1
    15     4     7    1
    16     7     8    1
    17     7    10    1
    18    10    11   ar
    19    11    12   ar
    20    12    13   ar
    21    13    14   ar
    22    14    15   ar
    23     7    16    1
    24    16    17   ar
    25    17    18   ar
    26    18    19   ar
    27    19    20   ar
    28    20    21   ar
    29     4     5    1
    30     5     6    1
    31    29    30   ar
    32    30    31   ar
    33    31    26   ar
    34     6     1    1
    35    15    10   ar
    36    21    16   ar
    37     8     9    1
@<TRIPOS>MOLECULE
*****
 34 37 0 0 0
SMALL
GASTEIGER

@<TRIPOS>ATOM
      1 N         138.3014  138.8763  163.1158 N.3     1  UNL1       -0.2727
      2 C         139.0543  137.8384  163.8942 C.3     1  UNL1        0.0722
      3 C         139.6295  138.1787  165.2370 C.3     1  UNL1        0.0204
      4 C         139.4518  139.5570  165.8016 C.3     1  UNL1        0.0353
      5 C         138.6989  140.5950  165.0232 C.3     1  UNL1        0.0204
      6 C         138.1237  140.2547  163.6804 C.3     1  UNL1        0.0722
      7 C         140.0270  139.8974  167.1444 C.3     1  UNL1        0.1256
      8 O         138.8064  139.3343  167.8100 O.3     1  UNL1       -0.3786
      9 H         138.5085  139.9411  168.5056 H       1  UNL1        0.2111
     10 C         140.6023  140.2377  168.4873 C.ar    1  UNL1        0.0056
     11 C         139.8995  141.2196  169.3772 C.ar    1  UNL1       -0.0017
     12 C         140.4747  141.5600  170.7201 C.ar    1  UNL1       -0.0002
     13 C         141.7527  140.9184  171.1730 C.ar    1  UNL1       -0.0000
     14 C         142.4555  139.9364  170.2831 C.ar    1  UNL1       -0.0002
     15 C         141.8803  139.5961  168.9403 C.ar    1  UNL1       -0.0017
     16 C         141.2477  140.4604  166.4789 C.ar    1  UNL1        0.0056
     17 C         141.5328  141.9311  166.5557 C.ar    1  UNL1       -0.0017
     18 C         142.7534  142.4942  165.8901 C.ar    1  UNL1       -0.0002
     19 C         143.6889  141.5866  165.1477 C.ar    1  UNL1       -0.0000
     20 C         143.4038  140.1160  165.0710 C.ar    1  UNL1       -0.0002
     21 C         142.1832  139.5529  165.7365 C.ar    1  UNL1       -0.0017
     22 C         137.7262  138.5359  161.7730 C.3     1  UNL1        0.0721
     23 C         137.7981  139.5305  160.6524 C.3     1  UNL1        0.0177
     24 C         138.9231  139.4650  159.6624 C.3     1  UNL1        0.0061
     25 C         139.8021  140.6609  159.4458 C.3     1  UNL1        0.0264
     26 C         140.3788  143.6580  162.7526 C.ar    1  UNL1        0.0140
     27 C         141.0983  142.3426  162.7986 C.ar    1  UNL1        0.0008
     28 C         140.9060  141.3436  161.6964 C.ar    1  UNL1       -0.0042
     29 C         139.9944  141.6599  160.5480 C.ar    1  UNL1       -0.0222
     30 C         139.2749  142.9753  160.5020 C.ar    1  UNL1       -0.0042
     31 C         139.4672  143.9743  161.6042 C.ar    1  UNL1        0.0008
     32 O         139.4980  144.8539  164.8842 O.co2   1  UNL1       -0.5446
     33 C         140.5711  144.6570  163.8548 C.2     1  UNL1        0.0729
     34 O         141.8364  145.4593  163.9277 O.co2   1  UNL1       -0.5446
@<TRIPOS>UNITY_ATOM_ATTR
32 1
charge -1
@<TRIPOS>BOND
     1    32    33   ar
     2    33    34   ar
     3    33    26    1
     4    26    27   ar
     5    27    28   ar
     6    28    29   ar
     7    29    25    1
     8    25    24    1
     9    24    23    1
    10    23    22    1
    11    22     1    1
    12     1     2    1
    13     2     3    1
    14     3     4    1
    15     4     7    1
    16     7     8    1
    17     7    10    1
    18    10    11   ar
    19    11    12   ar
    20    12    13   ar
    21    13    14   ar
    22    14    15   ar
    23     7    16    1
    24    16    17   ar
    25    17    18   ar
    26    18    19   ar
    27    19    20   ar
    28    20    21   ar
    29     4     5    1
    30     5     6    1
    31    29    30   ar
    32    30    31   ar
    33    31    26   ar
    34     6     1    1
    35    15    10   ar
    36    21    16   ar
    37     8     9    1
@<TRIPOS>MOLECULE
*****
 34 37 0 0 0
SMALL
GASTEIGER

@<TRIPOS>ATOM
      1 N         139.0519  142.4169  162.2727 N.3     1  UNL1       -0.2727
      2 C         138.2430  142.7996  163.4765 C.3     1  UNL1        0.0722
      3 C         138.6787  142.3611  164.8432 C.3     1  UNL1        0.0204
      4 C         139.9233  141.5399  165.0061 C.3     1  UNL1        0.0353
      5 C         140.7323  141.1571  163.8023 C.3     1  UNL1        0.0204
      6 C         140.2966  141.5956  162.4356 C.3     1  UNL1        0.0722
      7 C         140.3590  141.1014  166.3728 C.3     1  UNL1        0.1256
      8 O         141.0603  142.4126  166.5699 O.3     1  UNL1       -0.3786
      9 H         141.9395  142.2553  166.9484 H       1  UNL1        0.2111
     10 C         140.7947  140.6628  167.7395 C.ar    1  UNL1        0.0056
     11 C         140.0446  141.1297  168.9516 C.ar    1  UNL1       -0.0017
     12 C         140.4803  140.6912  170.3183 C.ar    1  UNL1       -0.0002
     13 C         141.6661  139.7858  170.4729 C.ar    1  UNL1       -0.0000
     14 C         142.4164  139.3189  169.2608 C.ar    1  UNL1       -0.0002
     15 C         141.9807  139.7574  167.8941 C.ar    1  UNL1       -0.0017
     16 C         139.6577  139.7901  166.1757 C.ar    1  UNL1        0.0056
     17 C         138.4167  139.4782  166.9583 C.ar    1  UNL1       -0.0017
     18 C         137.7154  138.1670  166.7611 C.ar    1  UNL1       -0.0002
     19 C         138.2551  137.1677  165.7814 C.ar    1  UNL1       -0.0000
     20 C         139.4962  137.4796  164.9988 C.ar    1  UNL1       -0.0002
     21 C         140.1975  138.7908  165.1959 C.ar    1  UNL1       -0.0017
     22 C         138.6162  142.8554  160.9060 C.3     1  UNL1        0.0721
     23 C         139.6225  142.9730  159.7998 C.3     1  UNL1        0.0177
     24 C         140.1582  144.3198  159.4133 C.3     1  UNL1        0.0061
     25 C         140.5827  145.2909  160.4747 C.3     1  UNL1        0.0264
     26 C         143.1608  143.9037  163.8923 C.ar    1  UNL1        0.0140
     27 C         143.5015  143.5066  162.4865 C.ar    1  UNL1        0.0008
     28 C         142.6421  143.9689  161.3473 C.ar    1  UNL1       -0.0042
     29 C         141.4421  144.8285  161.6139 C.ar    1  UNL1       -0.0222
     30 C         141.1014  145.2256  163.0197 C.ar    1  UNL1       -0.0042
     31 C         141.9608  144.7633  164.1588 C.ar    1  UNL1        0.0008
     32 O         143.9266  142.0244  165.5144 O.co2   1  UNL1       -0.5446
     33 C         144.0202  143.4414  165.0314 C.2     1  UNL1        0.0729
     34 O         144.9731  144.3960  165.6876 O.co2   1  UNL1       -0.5446
@<TRIPOS>UNITY_ATOM_ATTR
32 1
charge -1
@<TRIPOS>BOND
     1    32    33   ar
     2    33    34   ar
     3    33    26    1
     4    26    27   ar
     5    27    28   ar
     6    28    29   ar
     7    29    25    1
     8    25    24    1
     9    24    23    1
    10    23    22    1
    11    22     1    1
    12     1     2    1
    13     2     3    1
    14     3     4    1
    15     4     7    1
    16     7     8    1
    17     7    10    1
    18    10    11   ar
    19    11    12   ar
    20    12    13   ar
    21    13    14   ar
    22    14    15   ar
    23     7    16    1
    24    16    17   ar
    25    17    18   ar
    26    18    19   ar
    27    19    20   ar
    28    20    21   ar
    29     4     5    1
    30     5     6    1
    31    29    30   ar
    32    30    31   ar
    33    31    26   ar
    34     6     1    1
    35    15    10   ar
    36    21    16   ar
    37     8     9    1
@<TRIPOS>MOLECULE
*****
 34 37 0 0 0
SMALL
GASTEIGER

@<TRIPOS>ATOM
      1 N         143.0878  142.5531  161.3533 N.3     1  UNL1       -0.2727
      2 C         143.9122  142.8291  162.5756 C.3     1  UNL1        0.0722
      3 C         143.3426  142.5696  163.9388 C.3     1  UNL1        0.0204
      4 C         141.9485  142.0342  164.0796 C.3     1  UNL1        0.0353
      5 C         141.1240  141.7581  162.8573 C.3     1  UNL1        0.0204
      6 C         141.6937  142.0175  161.4941 C.3     1  UNL1        0.0722
      7 C         141.3789  141.7747  165.4428 C.3     1  UNL1        0.1256
      8 O         142.5969  140.9751  165.7996 O.3     1  UNL1       -0.3786
      9 H         142.3272  140.1550  166.2418 H       1  UNL1        0.2111
     10 C         140.8093  141.5152  166.8060 C.ar    1  UNL1        0.0056
     11 C         140.8617  142.5845  167.8567 C.ar    1  UNL1       -0.0017
     12 C         140.2921  142.3250  169.2198 C.ar    1  UNL1       -0.0002
     13 C         139.6701  140.9963  169.5323 C.ar    1  UNL1       -0.0000
     14 C         139.6177  139.9270  168.4816 C.ar    1  UNL1       -0.0002
     15 C         140.1873  140.1865  167.1185 C.ar    1  UNL1       -0.0017
     16 C         140.1610  142.5743  165.0861 C.ar    1  UNL1        0.0056
     17 C         138.8529  141.8811  164.8448 C.ar    1  UNL1       -0.0017
     18 C         137.6349  142.6806  164.4881 C.ar    1  UNL1       -0.0002
     19 C         137.7251  144.1734  164.3726 C.ar    1  UNL1       -0.0000
     20 C         139.0332  144.8666  164.6138 C.ar    1  UNL1       -0.0002
     21 C         140.2511  144.0671  164.9706 C.ar    1  UNL1       -0.0017
     22 C         143.6574  142.8125  159.9901 C.3     1  UNL1        0.0721
     23 C         143.2991  141.9135  158.8440 C.3     1  UNL1        0.0177
     24 C         144.0229  140.6131  158.6562 C.3     1  UNL1        0.0061
     25 C         143.3203  139.3170  158.9326 C.3     1  UNL1        0.0264
     26 C         142.2187  138.2101  163.1529 C.ar    1  UNL1        0.0140
     27 C         143.5785  138.7685  162.8546 C.ar    1  UNL1        0.0008
     28 C         143.9457  139.1375  161.4478 C.ar    1  UNL1       -0.0042
     29 C         142.9531  138.9480  160.3393 C.ar    1  UNL1       -0.0222
     30 C         141.5933  138.3896  160.6376 C.ar    1  UNL1       -0.0042
     31 C         141.2261  138.0206  162.0444 C.ar    1  UNL1        0.0008
     32 O         142.8213  138.0872  165.6771 O.co2   1  UNL1       -0.5446
     33 C         141.8514  137.8411  164.5596 C.2     1  UNL1        0.0729
     34 O         140.5143  137.2260  164.8490 O.co2   1  UNL1       -0.5446
@<TRIPOS>UNITY_ATOM_ATTR
32 1
charge -1
@<TRIPOS>BOND
     1    32    33   ar
     2    33    34   ar
     3    33    26    1
     4    26    27   ar
     5    27    28   ar
     6    28    29   ar
     7    29    25    1
     8    25    24    1
     9    24    23    1
    10    23    22    1
    11    22     1    1
    12     1     2    1
    13     2     3    1
    14     3     4    1
    15     4     7    1
    16     7     8    1
    17     7    10    1
    18    10    11   ar
    19    11    12   ar
    20    12    13   ar
    21    13    14   ar
    22    14    15   ar
    23     7    16    1
    24    16    17   ar
    25    17    18   ar
    26    18    19   ar
    27    19    20   ar
    28    20    21   ar
    29     4     5    1
    30     5     6    1
    31    29    30   ar
    32    30    31   ar
    33    31    26   ar
    34     6     1    1
    35    15    10   ar
    36    21    16   ar
    37     8     9    1
@<TRIPOS>MOLECULE
*****
 34 37 0 0 0
SMALL
GASTEIGER

@<TRIPOS>ATOM
      1 N         143.5694  138.5615  162.6564 N.3     1  UNL1       -0.2727
      2 C         144.5396  139.5752  163.1865 C.3     1  UNL1        0.0722
      3 C         144.1991  140.3697  164.4125 C.3     1  UNL1        0.0204
      4 C         142.8885  140.1505  165.1083 C.3     1  UNL1        0.0353
      5 C         141.9183  139.1367  164.5782 C.3     1  UNL1        0.0204
      6 C         142.2587  138.3422  163.3523 C.3     1  UNL1        0.0722
      7 C         142.5481  140.9450  166.3342 C.3     1  UNL1        0.1256
      8 O         142.3871  139.6735  167.1135 O.3     1  UNL1       -0.3786
      9 H         141.5793  139.7221  167.6483 H       1  UNL1        0.2111
     10 C         142.2076  141.7395  167.5601 C.ar    1  UNL1        0.0056
     11 C         143.2259  141.9139  168.6475 C.ar    1  UNL1       -0.0017
     12 C         142.8855  142.7084  169.8735 C.ar    1  UNL1       -0.0002
     13 C         141.5267  143.3285  170.0119 C.ar    1  UNL1       -0.0000
     14 C         140.5083  143.1541  168.9245 C.ar    1  UNL1       -0.0002
     15 C         140.8488  142.3596  167.6985 C.ar    1  UNL1       -0.0017
     16 C         142.7091  142.2165  165.5549 C.ar    1  UNL1        0.0056
     17 C         143.9601  143.0313  165.6992 C.ar    1  UNL1       -0.0017
     18 C         144.1211  144.3028  164.9199 C.ar    1  UNL1       -0.0002
     19 C         143.0311  144.7595  163.9962 C.ar    1  UNL1       -0.0000
     20 C         141.7801  143.9446  163.8518 C.ar    1  UNL1       -0.0002
     21 C         141.6191  142.6731  164.6311 C.ar    1  UNL1       -0.0017
     22 C         143.9099  137.7670  161.4305 C.3     1  UNL1        0.0721
     23 C         143.0263  137.8395  160.2205 C.3     1  UNL1        0.0177
     24 C         142.3304  139.1228  159.8758 C.3     1  UNL1        0.0061
     25 C         140.8324  139.1941  159.9019 C.3     1  UNL1        0.0264
     26 C         138.7741  142.4153  162.2764 C.ar    1  UNL1        0.0140
     27 C         139.5076  142.7655  161.0157 C.ar    1  UNL1        0.0008
     28 C         140.1937  141.6917  160.2242 C.ar    1  UNL1       -0.0042
     29 C         140.1463  140.2678  160.6934 C.ar    1  UNL1       -0.0222
     30 C         139.4128  139.9176  161.9541 C.ar    1  UNL1       -0.0042
     31 C         138.7268  140.9914  162.7456 C.ar    1  UNL1        0.0008
     32 O         137.5959  143.1998  164.4549 O.co2   1  UNL1       -0.5446
     33 C         138.0881  143.4890  163.0678 C.2     1  UNL1        0.0729
     34 O         137.8942  144.8519  162.4722 O.co2   1  UNL1       -0.5446
@<TRIPOS>UNITY_ATOM_ATTR
32 1
charge -1
@<TRIPOS>BOND
     1    32    33   ar
     2    33    34   ar
     3    33    26    1
     4    26    27   ar
     5    27    28   ar
     6    28    29   ar
     7    29    25    1
     8    25    24    1
     9    24    23    1
    10    23    22    1
    11    22     1    1
    12     1     2    1
    13     2     3    1
    14     3     4    1
    15     4     7    1
    16     7     8    1
    17     7    10    1
    18    10    11   ar
    19    11    12   ar
    20    12    13   ar
    21    13    14   ar
    22    14    15   ar
    23     7    16    1
    24    16    17   ar
    25    17    18   ar
    26    18    19   ar
    27    19    20   ar
    28    20    21   ar
    29     4     5    1
    30     5     6    1
    31    29    30   ar
    32    30    31   ar
    33    31    26   ar
    34     6     1    1
    35    15    10   ar
    36    21    16   ar
    37     8     9    1
@<TRIPOS>MOLECULE
*****
 34 37 0 0 0
SMALL
GASTEIGER

@<TRIPOS>ATOM
      1 N         142.9897  138.6306  163.0821 N.3     1  UNL1       -0.2727
      2 C         143.5523  139.9508  163.5185 C.3     1  UNL1        0.0722
      3 C         143.0395  140.6096  164.7647 C.3     1  UNL1        0.0204
      4 C         141.9639  139.9482  165.5745 C.3     1  UNL1        0.0353
      5 C         141.4012  138.6279  165.1381 C.3     1  UNL1        0.0204
      6 C         141.9141  137.9691  163.8919 C.3     1  UNL1        0.0722
      7 C         141.4511  140.6070  166.8207 C.3     1  UNL1        0.1256
      8 O         142.5183  139.9221  167.6219 O.3     1  UNL1       -0.3786
      9 H         142.1301  139.5576  168.4327 H       1  UNL1        0.2111
     10 C         140.9382  141.2658  168.0668 C.ar    1  UNL1        0.0056
     11 C         141.5803  142.5253  168.5680 C.ar    1  UNL1       -0.0017
     12 C         141.0675  143.1841  169.8142 C.ar    1  UNL1       -0.0002
     13 C         139.9125  142.5833  170.5592 C.ar    1  UNL1       -0.0000
     14 C         139.2703  141.3237  170.0580 C.ar    1  UNL1       -0.0002
     15 C         139.7832  140.6649  168.8119 C.ar    1  UNL1       -0.0017
     16 C         140.3839  141.2919  166.0194 C.ar    1  UNL1        0.0056
     17 C         140.5234  142.7440  165.6707 C.ar    1  UNL1       -0.0017
     18 C         139.4562  143.4289  164.8695 C.ar    1  UNL1       -0.0002
     19 C         138.2495  142.6616  164.4169 C.ar    1  UNL1       -0.0000
     20 C         138.1099  141.2094  164.7655 C.ar    1  UNL1       -0.0002
     21 C         139.1771  140.5245  165.5668 C.ar    1  UNL1       -0.0017
     22 C         143.5025  137.9718  161.8359 C.3     1  UNL1        0.0721
     23 C         144.1588  138.7956  160.7678 C.3     1  UNL1        0.0177
     24 C         143.3749  139.2226  159.5623 C.3     1  UNL1        0.0061
     25 C         143.2327  140.6802  159.2379 C.3     1  UNL1        0.0264
     26 C         143.0802  143.7189  162.5534 C.ar    1  UNL1        0.0140
     27 C         141.8262  143.0207  162.1177 C.ar    1  UNL1        0.0008
     28 C         141.8770  142.0078  161.0126 C.ar    1  UNL1       -0.0042
     29 C         143.1819  141.6931  160.3431 C.ar    1  UNL1       -0.0222
     30 C         144.4359  142.3913  160.7788 C.ar    1  UNL1       -0.0042
     31 C         144.3851  143.4042  161.8840 C.ar    1  UNL1        0.0008
     32 O         141.8668  145.6743  163.7593 O.co2   1  UNL1       -0.5446
     33 C         143.0294  144.7318  163.6586 C.2     1  UNL1        0.0729
     34 O         144.1411  144.8022  164.6631 O.co2   1  UNL1       -0.5446
@<TRIPOS>UNITY_ATOM_ATTR
32 1
charge -1
@<TRIPOS>BOND
     1    32    33   ar
     2    33    34   ar
     3    33    26    1
     4    26    27   ar
     5    27    28   ar
     6    28    29   ar
     7    29    25    1
     8    25    24    1
     9    24    23    1
    10    23    22    1
    11    22     1    1
    12     1     2    1
    13     2     3    1
    14     3     4    1
    15     4     7    1
    16     7     8    1
    17     7    10    1
    18    10    11   ar
    19    11    12   ar
    20    12    13   ar
    21    13    14   ar
    22    14    15   ar
    23     7    16    1
    24    16    17   ar
    25    17    18   ar
    26    18    19   ar
    27    19    20   ar
    28    20    21   ar
    29     4     5    1
    30     5     6    1
    31    29    30   ar
    32    30    31   ar
    33    31    26   ar
    34     6     1    1
    35    15    10   ar
    36    21    16   ar
    37     8     9    1
@<TRIPOS>MOLECULE
*****
 34 37 0 0 0
SMALL
GASTEIGER

@<TRIPOS>ATOM
      1 N         139.5969  139.4830  160.5172 N.3     1  UNL1       -0.2727
      2 C         140.4002  140.6197  161.0761 C.3     1  UNL1        0.0722
      3 C         140.6254  140.7228  162.5555 C.3     1  UNL1        0.0204
      4 C         140.0472  139.6892  163.4760 C.3     1  UNL1        0.0353
      5 C         139.2438  138.5524  162.9171 C.3     1  UNL1        0.0204
      6 C         139.0186  138.4493  161.4377 C.3     1  UNL1        0.0722
      7 C         140.2724  139.7923  164.9554 C.3     1  UNL1        0.1256
      8 O         140.8644  138.4141  164.9614 O.3     1  UNL1       -0.3786
      9 H         140.5023  137.9099  165.7068 H       1  UNL1        0.2111
     10 C         140.4976  139.8954  166.4348 C.ar    1  UNL1        0.0056
     11 C         139.3259  139.9621  167.3689 C.ar    1  UNL1       -0.0017
     12 C         139.5511  140.0652  168.8484 C.ar    1  UNL1       -0.0002
     13 C         140.9480  140.1016  169.3936 C.ar    1  UNL1       -0.0000
     14 C         142.1197  140.0349  168.4595 C.ar    1  UNL1       -0.0002
     15 C         141.8946  139.9318  166.9801 C.ar    1  UNL1       -0.0017
     16 C         139.6805  141.1705  164.9495 C.ar    1  UNL1        0.0056
     17 C         140.5201  142.3491  165.3441 C.ar    1  UNL1       -0.0017
     18 C         139.9282  143.7274  165.3382 C.ar    1  UNL1       -0.0002
     19 C         138.4966  143.9270  164.9376 C.ar    1  UNL1       -0.0000
     20 C         137.6569  142.7484  164.5429 C.ar    1  UNL1       -0.0002
     21 C         138.2488  141.3702  164.5488 C.ar    1  UNL1       -0.0017
     22 C         139.3717  139.3799  159.0378 C.3     1  UNL1        0.0721
     23 C         140.0784  138.3217  158.2435 C.3     1  UNL1        0.0177
     24 C         141.3629  138.6448  157.5395 C.3     1  UNL1        0.0061
     25 C         142.6662  138.1482  158.0916 C.3     1  UNL1        0.0264
     26 C         143.9028  139.2491  162.2760 C.ar    1  UNL1        0.0140
     27 C         144.2112  140.1729  161.1352 C.ar    1  UNL1        0.0008
     28 C         143.7990  139.8059  159.7404 C.ar    1  UNL1       -0.0042
     29 C         143.0784  138.5152  159.4864 C.ar    1  UNL1       -0.0222
     30 C         142.7700  137.5913  160.6272 C.ar    1  UNL1       -0.0042
     31 C         143.1822  137.9583  162.0219 C.ar    1  UNL1        0.0008
     32 O         145.1719  140.8244  163.9061 O.co2   1  UNL1       -0.5446
     33 C         144.3150  139.6161  163.6707 C.2     1  UNL1        0.0729
     34 O         143.8702  138.7747  164.8301 O.co2   1  UNL1       -0.5446
@<TRIPOS>UNITY_ATOM_ATTR
32 1
charge -1
@<TRIPOS>BOND
     1    32    33   ar
     2    33    34   ar
     3    33    26    1
     4    26    27   ar
     5    27    28   ar
     6    28    29   ar
     7    29    25    1
     8    25    24    1
     9    24    23    1
    10    23    22    1
    11    22     1    1
    12     1     2    1
    13     2     3    1
    14     3     4    1
    15     4     7    1
    16     7     8    1
    17     7    10    1
    18    10    11   ar
    19    11    12   ar
    20    12    13   ar
    21    13    14   ar
    22    14    15   ar
    23     7    16    1
    24    16    17   ar
    25    17    18   ar
    26    18    19   ar
    27    19    20   ar
    28    20    21   ar
    29     4     5    1
    30     5     6    1
    31    29    30   ar
    32    30    31   ar
    33    31    26   ar
    34     6     1    1
    35    15    10   ar
    36    21    16   ar
    37     8     9    1
