@<TRIPOS>MOLECULE
*****
 32 36 0 0 0
SMALL
GASTEIGER

@<TRIPOS>ATOM
      1 N         139.6787  139.9861  166.0252 N.pl3   1  UNL1       -0.3046
      2 C         140.7726  139.0558  165.5917 C.3     1  UNL1        0.1081
      3 C         140.6949  138.3772  164.2563 C.3     1  UNL1        0.0938
      4 N         139.5231  138.6287  163.3543 N.3     1  UNL1       -0.2698
      5 C         138.4291  139.5589  163.7877 C.3     1  UNL1        0.0938
      6 C         138.5069  140.2376  165.1232 C.3     1  UNL1        0.1081
      7 F         139.9900  142.7004  171.3670 F       1  UNL1       -0.2042
      8 C         139.9122  142.0218  170.0316 C.ar    1  UNL1        0.1402
      9 C         139.3405  140.6391  169.9251 C.ar    1  UNL1        0.0309
     10 C         139.2627  139.9606  168.5896 C.ar    1  UNL1        0.0168
     11 C         139.7565  140.6647  167.3606 C.ar    1  UNL1        0.0480
     12 C         140.3282  142.0474  167.4671 C.ar    1  UNL1        0.0156
     13 C         140.4060  142.7260  168.8026 C.ar    1  UNL1        0.0309
     14 C         140.8220  142.7516  166.2382 C.ar    1  UNL1        0.0013
     15 C         139.9022  143.6536  165.4700 C.ar    1  UNL1        0.0000
     16 C         140.3960  144.3578  164.2410 C.ar    1  UNL1        0.0000
     17 C         141.8097  144.1598  163.7803 C.ar    1  UNL1        0.0000
     18 C         142.7296  143.2577  164.5485 C.ar    1  UNL1        0.0000
     19 C         142.2357  142.5535  165.7775 C.ar    1  UNL1        0.0000
     20 C         139.4452  137.9501  162.0189 C.3     1  UNL1        0.0725
     21 C         140.1856  138.5183  160.8446 C.3     1  UNL1        0.0221
     22 C         141.6800  138.4074  160.7751 C.3     1  UNL1        0.0294
     23 C         142.5283  139.6419  160.8553 C.2     1  UNL1       -0.0018
     24 C         142.5127  140.7868  159.8863 C.2     1  UNL1        0.0942
     25 N         143.5159  141.8007  160.3507 N.2     1  UNL1       -0.2482
     26 C         144.1514  141.2824  161.6067 C.2     1  UNL1        0.0632
     27 C         145.2070  141.8530  162.5067 C.3     1  UNL1        0.0741
     28 C         145.6522  141.0894  163.7185 C.2     1  UNL1        0.0098
     29 C         145.0418  139.7552  164.0304 C.2     1  UNL1        0.1363
     30 F         145.4871  138.9916  165.2423 F       1  UNL1       -0.2045
     31 C         143.9862  139.1846  163.1304 C.2     1  UNL1        0.0302
     32 C         143.5410  139.9482  161.9185 C.2     1  UNL1        0.0136
@<TRIPOS>BOND
     1     7     8    1
     2     8     9   ar
     3     9    10   ar
     4    10    11   ar
     5    11     1    1
     6     1     2    1
     7     2     3    1
     8     3     4    1
     9     4    20    1
    10    20    21    1
    11    21    22    1
    12    22    23    1
    13    23    24    2
    14    24    25    1
    15    25    26    2
    16    26    27    1
    17    27    28    1
    18    28    29    2
    19    29    30    1
    20    29    31    1
    21    31    32    2
    22     4     5    1
    23     5     6    1
    24    11    12   ar
    25    12    14    1
    26    14    15   ar
    27    15    16   ar
    28    16    17   ar
    29    17    18   ar
    30    18    19   ar
    31    12    13   ar
    32    13     8   ar
    33     6     1    1
    34    19    14   ar
    35    32    23    1
    36    32    26    1
@<TRIPOS>MOLECULE
*****
 32 36 0 0 0
SMALL
GASTEIGER

@<TRIPOS>ATOM
      1 N         140.3198  142.3475  165.9066 N.pl3   1  UNL1       -0.3046
      2 C         139.5389  141.0942  165.6430 C.3     1  UNL1        0.1081
      3 C         138.8616  140.8969  164.3193 C.3     1  UNL1        0.0938
      4 N         138.9652  141.9529  163.2590 N.3     1  UNL1       -0.2698
      5 C         139.7461  143.2062  163.5225 C.3     1  UNL1        0.0938
      6 C         140.4234  143.4035  164.8463 C.3     1  UNL1        0.1081
      7 F         143.0288  143.1365  171.2017 F       1  UNL1       -0.2042
      8 C         142.3515  142.9393  169.8779 C.ar    1  UNL1        0.1402
      9 C         140.9109  143.3211  169.7082 C.ar    1  UNL1        0.0309
     10 C         140.2337  143.1238  168.3844 C.ar    1  UNL1        0.0168
     11 C         140.9971  142.5448  167.2303 C.ar    1  UNL1        0.0480
     12 C         142.4377  142.1630  167.4000 C.ar    1  UNL1        0.0156
     13 C         143.1149  142.3603  168.7238 C.ar    1  UNL1        0.0309
     14 C         143.2012  141.5840  166.2459 C.ar    1  UNL1        0.0013
     15 C         143.9928  142.4833  165.3436 C.ar    1  UNL1        0.0000
     16 C         144.7563  141.9042  164.1895 C.ar    1  UNL1        0.0000
     17 C         144.7280  140.4258  163.9379 C.ar    1  UNL1        0.0000
     18 C         143.9363  139.5264  164.8402 C.ar    1  UNL1        0.0000
     19 C         143.1728  140.1054  165.9943 C.ar    1  UNL1        0.0000
     20 C         138.2879  141.7557  161.9353 C.3     1  UNL1        0.0725
     21 C         137.6687  140.4313  161.5996 C.3     1  UNL1        0.0221
     22 C         138.4300  139.4343  160.7771 C.3     1  UNL1        0.0294
     23 C         139.5972  138.7050  161.3737 C.2     1  UNL1       -0.0018
     24 C         139.5316  137.6832  162.4698 C.2     1  UNL1        0.0942
     25 N         140.9288  137.2163  162.7524 N.2     1  UNL1       -0.2482
     26 C         141.8579  137.9494  161.8308 C.2     1  UNL1        0.0632
     27 C         143.3469  137.8981  161.6575 C.3     1  UNL1        0.0741
     28 C         144.0130  138.7669  160.6321 C.2     1  UNL1        0.0098
     29 C         143.1900  139.6870  159.7800 C.2     1  UNL1        0.1363
     30 F         143.8561  140.5558  158.7545 F       1  UNL1       -0.2045
     31 C         141.7009  139.7383  159.9533 C.2     1  UNL1        0.0302
     32 C         141.0349  138.8696  160.9787 C.2     1  UNL1        0.0136
@<TRIPOS>BOND
     1     7     8    1
     2     8     9   ar
     3     9    10   ar
     4    10    11   ar
     5    11     1    1
     6     1     2    1
     7     2     3    1
     8     3     4    1
     9     4    20    1
    10    20    21    1
    11    21    22    1
    12    22    23    1
    13    23    24    2
    14    24    25    1
    15    25    26    2
    16    26    27    1
    17    27    28    1
    18    28    29    2
    19    29    30    1
    20    29    31    1
    21    31    32    2
    22     4     5    1
    23     5     6    1
    24    11    12   ar
    25    12    14    1
    26    14    15   ar
    27    15    16   ar
    28    16    17   ar
    29    17    18   ar
    30    18    19   ar
    31    12    13   ar
    32    13     8   ar
    33     6     1    1
    34    19    14   ar
    35    32    23    1
    36    32    26    1
@<TRIPOS>MOLECULE
*****
 32 36 0 0 0
SMALL
GASTEIGER

@<TRIPOS>ATOM
      1 N         142.4888  142.1793  165.9704 N.pl3   1  UNL1       -0.3046
      2 C         143.6041  142.0714  164.9731 C.3     1  UNL1        0.1081
      3 C         143.4400  142.6496  163.5988 C.3     1  UNL1        0.0938
      4 N         142.1606  143.3357  163.2217 N.3     1  UNL1       -0.2698
      5 C         141.0453  143.4437  164.2190 C.3     1  UNL1        0.0938
      6 C         141.2094  142.8654  165.5933 C.3     1  UNL1        0.1081
      7 F         143.1458  139.8666  171.4676 F       1  UNL1       -0.2042
      8 C         142.9816  140.4448  170.0933 C.ar    1  UNL1        0.1402
      9 C         143.4615  141.8359  169.8026 C.ar    1  UNL1        0.0309
     10 C         143.2972  142.4140  168.4283 C.ar    1  UNL1        0.0168
     11 C         142.6531  141.6011  167.3447 C.ar    1  UNL1        0.0480
     12 C         142.1731  140.2100  167.6354 C.ar    1  UNL1        0.0156
     13 C         142.3374  139.6318  169.0097 C.ar    1  UNL1        0.0309
     14 C         141.5289  139.3970  166.5518 C.ar    1  UNL1        0.0013
     15 C         140.0436  139.4567  166.3518 C.ar    1  UNL1        0.0000
     16 C         139.3994  138.6438  165.2682 C.ar    1  UNL1        0.0000
     17 C         140.2407  137.7711  164.3847 C.ar    1  UNL1        0.0000
     18 C         141.7261  137.7114  164.5847 C.ar    1  UNL1        0.0000
     19 C         142.3703  138.5244  165.6682 C.ar    1  UNL1        0.0000
     20 C         141.9964  143.9139  161.8475 C.3     1  UNL1        0.0725
     21 C         140.7145  144.5946  161.4685 C.3     1  UNL1        0.0221
     22 C         139.6818  143.8572  160.6685 C.3     1  UNL1        0.0294
     23 C         138.8605  142.7810  161.3143 C.2     1  UNL1       -0.0018
     24 C         137.7580  142.9908  162.3096 C.2     1  UNL1        0.0942
     25 N         137.2136  141.6455  162.6886 N.2     1  UNL1       -0.2482
     26 C         137.9796  140.6042  161.9276 C.2     1  UNL1        0.0632
     27 C         137.8817  139.1077  161.8984 C.3     1  UNL1        0.0741
     28 C         138.8017  138.3131  161.0197 C.2     1  UNL1        0.0098
     29 C         139.8195  139.0149  160.1703 C.2     1  UNL1        0.1363
     30 F         140.7396  138.2201  159.2916 F       1  UNL1       -0.2045
     31 C         139.9174  140.5114  160.1996 C.2     1  UNL1        0.0302
     32 C         138.9974  141.3060  161.0782 C.2     1  UNL1        0.0136
@<TRIPOS>BOND
     1     7     8    1
     2     8     9   ar
     3     9    10   ar
     4    10    11   ar
     5    11     1    1
     6     1     2    1
     7     2     3    1
     8     3     4    1
     9     4    20    1
    10    20    21    1
    11    21    22    1
    12    22    23    1
    13    23    24    2
    14    24    25    1
    15    25    26    2
    16    26    27    1
    17    27    28    1
    18    28    29    2
    19    29    30    1
    20    29    31    1
    21    31    32    2
    22     4     5    1
    23     5     6    1
    24    11    12   ar
    25    12    14    1
    26    14    15   ar
    27    15    16   ar
    28    16    17   ar
    29    17    18   ar
    30    18    19   ar
    31    12    13   ar
    32    13     8   ar
    33     6     1    1
    34    19    14   ar
    35    32    23    1
    36    32    26    1
@<TRIPOS>MOLECULE
*****
 32 36 0 0 0
SMALL
GASTEIGER

@<TRIPOS>ATOM
      1 N         141.4468  142.5214  166.6694 N.pl3   1  UNL1       -0.3046
      2 C         142.2742  142.6864  165.4291 C.3     1  UNL1        0.1081
      3 C         141.7249  143.4428  164.2561 C.3     1  UNL1        0.0938
      4 N         140.3481  144.0344  164.3233 N.3     1  UNL1       -0.2698
      5 C         139.5207  143.8695  165.5636 C.3     1  UNL1        0.0938
      6 C         140.0701  143.1130  166.7366 C.3     1  UNL1        0.1081
      7 F         143.6446  139.4955  171.3612 F       1  UNL1       -0.2042
      8 C         143.0952  140.2520  170.1882 C.ar    1  UNL1        0.1402
      9 C         143.5289  141.6660  169.9379 C.ar    1  UNL1        0.0309
     10 C         142.9794  142.4224  168.7649 C.ar    1  UNL1        0.0168
     11 C         141.9963  141.7649  167.8423 C.ar    1  UNL1        0.0480
     12 C         141.5626  140.3509  168.0927 C.ar    1  UNL1        0.0156
     13 C         142.1121  139.5945  169.2656 C.ar    1  UNL1        0.0309
     14 C         140.5795  139.6934  167.1701 C.ar    1  UNL1        0.0013
     15 C         139.1251  139.6466  167.5338 C.ar    1  UNL1        0.0000
     16 C         138.1420  138.9890  166.6112 C.ar    1  UNL1        0.0000
     17 C         138.6134  138.3784  165.3249 C.ar    1  UNL1        0.0000
     18 C         140.0679  138.4252  164.9610 C.ar    1  UNL1        0.0000
     19 C         141.0510  139.0828  165.8836 C.ar    1  UNL1        0.0000
     20 C         139.7987  144.7909  163.1504 C.3     1  UNL1        0.0725
     21 C         138.3598  144.6267  162.7595 C.3     1  UNL1        0.0221
     22 C         137.8630  143.2996  162.2675 C.3     1  UNL1        0.0294
     23 C         138.6081  142.5735  161.1869 C.2     1  UNL1       -0.0018
     24 C         139.3358  143.2076  160.0387 C.2     1  UNL1        0.0942
     25 N         139.9338  142.1118  159.2070 N.2     1  UNL1       -0.2482
     26 C         139.5756  140.8005  159.8412 C.2     1  UNL1        0.0632
     27 C         139.8897  139.3835  159.4625 C.3     1  UNL1        0.0741
     28 C         139.3845  138.2519  160.3075 C.2     1  UNL1        0.0098
     29 C         138.5652  138.5372  161.5311 C.2     1  UNL1        0.1363
     30 F         138.0599  137.4054  162.3761 F       1  UNL1       -0.2045
     31 C         138.2511  139.9542  161.9098 C.2     1  UNL1        0.0302
     32 C         138.7563  141.0858  161.0648 C.2     1  UNL1        0.0136
@<TRIPOS>BOND
     1     7     8    1
     2     8     9   ar
     3     9    10   ar
     4    10    11   ar
     5    11     1    1
     6     1     2    1
     7     2     3    1
     8     3     4    1
     9     4    20    1
    10    20    21    1
    11    21    22    1
    12    22    23    1
    13    23    24    2
    14    24    25    1
    15    25    26    2
    16    26    27    1
    17    27    28    1
    18    28    29    2
    19    29    30    1
    20    29    31    1
    21    31    32    2
    22     4     5    1
    23     5     6    1
    24    11    12   ar
    25    12    14    1
    26    14    15   ar
    27    15    16   ar
    28    16    17   ar
    29    17    18   ar
    30    18    19   ar
    31    12    13   ar
    32    13     8   ar
    33     6     1    1
    34    19    14   ar
    35    32    23    1
    36    32    26    1
@<TRIPOS>MOLECULE
*****
 32 36 0 0 0
SMALL
GASTEIGER

@<TRIPOS>ATOM
      1 N         142.4383  139.6877  166.0127 N.pl3   1  UNL1       -0.3046
      2 C         142.1723  138.4899  165.1498 C.3     1  UNL1        0.1081
      3 C         142.7514  138.4174  163.7680 C.3     1  UNL1        0.0938
      4 N         143.5967  139.5426  163.2491 N.3     1  UNL1       -0.2698
      5 C         143.8627  140.7405  164.1119 C.3     1  UNL1        0.0938
      6 C         143.2836  140.8130  165.4937 C.3     1  UNL1        0.1081
      7 F         140.1218  139.9775  171.5398 F       1  UNL1       -0.2042
      8 C         140.7010  139.9050  170.1580 C.ar    1  UNL1        0.1402
      9 C         142.0628  139.3131  169.9456 C.ar    1  UNL1        0.0309
     10 C         142.6419  139.2407  168.5639 C.ar    1  UNL1        0.0168
     11 C         141.8592  139.7602  167.3944 C.ar    1  UNL1        0.0480
     12 C         140.4974  140.3521  167.6068 C.ar    1  UNL1        0.0156
     13 C         139.9183  140.4245  168.9886 C.ar    1  UNL1        0.0309
     14 C         139.7147  140.8716  166.4374 C.ar    1  UNL1        0.0013
     15 C         139.8453  142.3081  166.0260 C.ar    1  UNL1        0.0000
     16 C         139.0626  142.8276  164.8566 C.ar    1  UNL1        0.0000
     17 C         138.1492  141.9104  164.0986 C.ar    1  UNL1        0.0000
     18 C         138.0186  140.4739  164.5100 C.ar    1  UNL1        0.0000
     19 C         138.8013  139.9544  165.6794 C.ar    1  UNL1        0.0000
     20 C         144.1758  139.4702  161.8673 C.3     1  UNL1        0.0725
     21 C         143.5220  140.2132  160.7402 C.3     1  UNL1        0.0221
     22 C         144.0020  141.5848  160.3678 C.3     1  UNL1        0.0294
     23 C         143.5751  142.7740  161.1762 C.2     1  UNL1       -0.0018
     24 C         144.4768  143.6635  161.9798 C.2     1  UNL1        0.0942
     25 N         143.6305  144.7217  162.6232 N.2     1  UNL1       -0.2482
     26 C         142.2058  144.4862  162.2172 C.2     1  UNL1        0.0632
     27 C         140.9353  145.2124  162.5463 C.3     1  UNL1        0.0741
     28 C         139.6305  144.7349  161.9812 C.2     1  UNL1        0.0098
     29 C         139.5963  143.5311  161.0869 C.2     1  UNL1        0.1363
     30 F         138.2914  143.0535  160.5217 F       1  UNL1       -0.2045
     31 C         140.8668  142.8049  160.7577 C.2     1  UNL1        0.0302
     32 C         142.1716  143.2825  161.3229 C.2     1  UNL1        0.0136
@<TRIPOS>BOND
     1     7     8    1
     2     8     9   ar
     3     9    10   ar
     4    10    11   ar
     5    11     1    1
     6     1     2    1
     7     2     3    1
     8     3     4    1
     9     4    20    1
    10    20    21    1
    11    21    22    1
    12    22    23    1
    13    23    24    2
    14    24    25    1
    15    25    26    2
    16    26    27    1
    17    27    28    1
    18    28    29    2
    19    29    30    1
    20    29    31    1
    21    31    32    2
    22     4     5    1
    23     5     6    1
    24    11    12   ar
    25    12    14    1
    26    14    15   ar
    27    15    16   ar
    28    16    17   ar
    29    17    18   ar
    30    18    19   ar
    31    12    13   ar
    32    13     8   ar
    33     6     1    1
    34    19    14   ar
    35    32    23    1
    36    32    26    1
@<TRIPOS>MOLECULE
*****
 32 36 0 0 0
SMALL
GASTEIGER

@<TRIPOS>ATOM
      1 N         142.6097  141.7839  165.2025 N.pl3   1  UNL1       -0.3046
      2 C         142.6126  142.8499  164.1472 C.3     1  UNL1        0.1081
      3 C         142.9893  142.5074  162.7362 C.3     1  UNL1        0.0938
      4 N         143.3630  141.0989  162.3805 N.3     1  UNL1       -0.2698
      5 C         143.3601  140.0329  163.4358 C.3     1  UNL1        0.0938
      6 C         142.9834  140.3754  164.8469 C.3     1  UNL1        0.1081
      7 F         141.1032  143.1540  170.8463 F       1  UNL1       -0.2042
      8 C         141.4798  142.8115  169.4354 C.ar    1  UNL1        0.1402
      9 C         142.9093  142.5136  169.0919 C.ar    1  UNL1        0.0309
     10 C         143.2859  142.1711  167.6809 C.ar    1  UNL1        0.0168
     11 C         142.2330  142.1264  166.6134 C.ar    1  UNL1        0.0480
     12 C         140.8036  142.4243  166.9569 C.ar    1  UNL1        0.0156
     13 C         140.4270  142.7668  168.3679 C.ar    1  UNL1        0.0309
     14 C         139.7507  142.3796  165.8894 C.ar    1  UNL1        0.0013
     15 C         139.2146  141.0599  165.4195 C.ar    1  UNL1        0.0000
     16 C         138.1618  141.0152  164.3520 C.ar    1  UNL1        0.0000
     17 C         137.6451  142.2903  163.7545 C.ar    1  UNL1        0.0000
     18 C         138.1811  143.6101  164.2244 C.ar    1  UNL1        0.0000
     19 C         139.2340  143.6548  165.2919 C.ar    1  UNL1        0.0000
     20 C         143.7397  140.7564  160.9696 C.3     1  UNL1        0.0725
     21 C         143.9626  139.3253  160.5793 C.3     1  UNL1        0.0221
     22 C         143.0232  138.6540  159.6217 C.3     1  UNL1        0.0294
     23 C         141.5438  138.7008  159.8654 C.2     1  UNL1       -0.0018
     24 C         140.5068  139.1968  158.9017 C.2     1  UNL1        0.0942
     25 N         139.1639  139.0624  159.5563 N.2     1  UNL1       -0.2482
     26 C         139.3709  138.4834  160.9244 C.2     1  UNL1        0.0632
     27 C         138.4100  138.1308  162.0210 C.3     1  UNL1        0.0741
     28 C         138.9201  137.5548  163.3085 C.2     1  UNL1        0.0098
     29 C         140.3910  137.3313  163.4996 C.2     1  UNL1        0.1363
     30 F         140.9011  136.7552  164.7873 F       1  UNL1       -0.2045
     31 C         141.3518  137.6839  162.4031 C.2     1  UNL1        0.0302
     32 C         140.8418  138.2600  161.1155 C.2     1  UNL1        0.0136
@<TRIPOS>BOND
     1     7     8    1
     2     8     9   ar
     3     9    10   ar
     4    10    11   ar
     5    11     1    1
     6     1     2    1
     7     2     3    1
     8     3     4    1
     9     4    20    1
    10    20    21    1
    11    21    22    1
    12    22    23    1
    13    23    24    2
    14    24    25    1
    15    25    26    2
    16    26    27    1
    17    27    28    1
    18    28    29    2
    19    29    30    1
    20    29    31    1
    21    31    32    2
    22     4     5    1
    23     5     6    1
    24    11    12   ar
    25    12    14    1
    26    14    15   ar
    27    15    16   ar
    28    16    17   ar
    29    17    18   ar
    30    18    19   ar
    31    12    13   ar
    32    13     8   ar
    33     6     1    1
    34    19    14   ar
    35    32    23    1
    36    32    26    1
@<TRIPOS>MOLECULE
*****
 32 36 0 0 0
SMALL
GASTEIGER

@<TRIPOS>ATOM
      1 N         139.7590  139.9863  166.2199 N.pl3   1  UNL1       -0.3046
      2 C         138.5540  140.1057  165.3346 C.3     1  UNL1        0.1081
      3 C         138.5045  139.3649  164.0312 C.3     1  UNL1        0.0938
      4 N         139.6600  138.5046  163.6132 N.3     1  UNL1       -0.2698
      5 C         140.8650  138.3852  164.4984 C.3     1  UNL1        0.0938
      6 C         140.9145  139.1261  165.8019 C.3     1  UNL1        0.1081
      7 F         139.9565  142.9496  171.4333 F       1  UNL1       -0.2042
      8 C         139.9071  142.2087  170.1300 C.ar    1  UNL1        0.1402
      9 C         139.3764  140.8065  170.0839 C.ar    1  UNL1        0.0309
     10 C         139.3270  140.0658  168.7805 C.ar    1  UNL1        0.0168
     11 C         139.8084  140.7272  167.5232 C.ar    1  UNL1        0.0480
     12 C         140.3392  142.1293  167.5693 C.ar    1  UNL1        0.0156
     13 C         140.3885  142.8701  168.8727 C.ar    1  UNL1        0.0309
     14 C         140.8206  142.7908  166.3120 C.ar    1  UNL1        0.0013
     15 C         139.8843  143.6416  165.5063 C.ar    1  UNL1        0.0000
     16 C         140.3657  144.3030  164.2490 C.ar    1  UNL1        0.0000
     17 C         141.7835  144.1135  163.7975 C.ar    1  UNL1        0.0000
     18 C         142.7199  143.2627  164.6032 C.ar    1  UNL1        0.0000
     19 C         142.2385  142.6012  165.8605 C.ar    1  UNL1        0.0000
     20 C         139.6106  137.7638  162.3099 C.3     1  UNL1        0.0725
     21 C         139.7683  138.5086  161.0174 C.3     1  UNL1        0.0221
     22 C         141.0822  138.4856  160.2940 C.3     1  UNL1        0.0294
     23 C         142.3264  138.9616  160.9835 C.2     1  UNL1       -0.0018
     24 C         143.2671  138.1150  161.7886 C.2     1  UNL1        0.0942
     25 N         144.3704  138.9980  162.2916 N.2     1  UNL1       -0.2482
     26 C         144.1116  140.3904  161.7973 C.2     1  UNL1        0.0632
     27 C         144.8630  141.6758  161.9789 C.3     1  UNL1        0.0741
     28 C         144.3512  142.9387  161.3521 C.2     1  UNL1        0.0098
     29 C         143.0879  142.9162  160.5436 C.2     1  UNL1        0.1363
     30 F         142.5761  144.1793  159.9167 F       1  UNL1       -0.2045
     31 C         142.3365  141.6308  160.3620 C.2     1  UNL1        0.0302
     32 C         142.8483  140.3679  160.9888 C.2     1  UNL1        0.0136
@<TRIPOS>BOND
     1     7     8    1
     2     8     9   ar
     3     9    10   ar
     4    10    11   ar
     5    11     1    1
     6     1     2    1
     7     2     3    1
     8     3     4    1
     9     4    20    1
    10    20    21    1
    11    21    22    1
    12    22    23    1
    13    23    24    2
    14    24    25    1
    15    25    26    2
    16    26    27    1
    17    27    28    1
    18    28    29    2
    19    29    30    1
    20    29    31    1
    21    31    32    2
    22     4     5    1
    23     5     6    1
    24    11    12   ar
    25    12    14    1
    26    14    15   ar
    27    15    16   ar
    28    16    17   ar
    29    17    18   ar
    30    18    19   ar
    31    12    13   ar
    32    13     8   ar
    33     6     1    1
    34    19    14   ar
    35    32    23    1
    36    32    26    1
@<TRIPOS>MOLECULE
*****
 32 36 0 0 0
SMALL
GASTEIGER

@<TRIPOS>ATOM
      1 N         142.4242  139.6601  165.9338 N.pl3   1  UNL1       -0.3046
      2 C         143.3385  140.7354  165.4259 C.3     1  UNL1        0.1081
      3 C         143.9000  140.6487  164.0377 C.3     1  UNL1        0.0938
      4 N         143.5471  139.4867  163.1572 N.3     1  UNL1       -0.2698
      5 C         142.6328  138.4114  163.6649 C.3     1  UNL1        0.0938
      6 C         142.0713  138.4981  165.0533 C.3     1  UNL1        0.1081
      7 F         140.1787  140.0072  171.4868 F       1  UNL1       -0.2042
      8 C         140.7401  139.9204  170.0986 C.ar    1  UNL1        0.1402
      9 C         142.0859  139.2982  169.8713 C.ar    1  UNL1        0.0309
     10 C         142.6472  139.2115  168.4830 C.ar    1  UNL1        0.0168
     11 C         141.8628  139.7469  167.3220 C.ar    1  UNL1        0.0480
     12 C         140.5169  140.3691  167.5493 C.ar    1  UNL1        0.0156
     13 C         139.9556  140.4558  168.9376 C.ar    1  UNL1        0.0309
     14 C         139.7325  140.9045  166.3883 C.ar    1  UNL1        0.0013
     15 C         138.7701  140.0147  165.6591 C.ar    1  UNL1        0.0000
     16 C         137.9856  140.5501  164.4981 C.ar    1  UNL1        0.0000
     17 C         138.1636  141.9755  164.0663 C.ar    1  UNL1        0.0000
     18 C         139.1260  142.8655  164.7955 C.ar    1  UNL1        0.0000
     19 C         139.9105  142.3300  165.9565 C.ar    1  UNL1        0.0000
     20 C         144.1085  139.3999  161.7690 C.3     1  UNL1        0.0725
     21 C         143.3446  139.9761  160.6137 C.3     1  UNL1        0.0221
     22 C         143.4347  141.4427  160.3118 C.3     1  UNL1        0.0294
     23 C         142.2867  142.3489  160.6448 C.2     1  UNL1       -0.0018
     24 C         140.9421  142.3492  159.9800 C.2     1  UNL1        0.0942
     25 N         140.1062  143.4144  160.6256 N.2     1  UNL1       -0.2482
     26 C         140.9342  144.0724  161.6893 C.2     1  UNL1        0.0632
     27 C         140.6352  145.1860  162.6486 C.3     1  UNL1        0.0741
     28 C         141.6837  145.6412  163.6198 C.2     1  UNL1        0.0098
     29 C         143.0314  144.9826  163.6317 C.2     1  UNL1        0.1363
     30 F         144.0800  145.4378  164.6030 F       1  UNL1       -0.2045
     31 C         143.3305  143.8689  162.6724 C.2     1  UNL1        0.0302
     32 C         142.2819  143.4138  161.7012 C.2     1  UNL1        0.0136
@<TRIPOS>BOND
     1     7     8    1
     2     8     9   ar
     3     9    10   ar
     4    10    11   ar
     5    11     1    1
     6     1     2    1
     7     2     3    1
     8     3     4    1
     9     4    20    1
    10    20    21    1
    11    21    22    1
    12    22    23    1
    13    23    24    2
    14    24    25    1
    15    25    26    2
    16    26    27    1
    17    27    28    1
    18    28    29    2
    19    29    30    1
    20    29    31    1
    21    31    32    2
    22     4     5    1
    23     5     6    1
    24    11    12   ar
    25    12    14    1
    26    14    15   ar
    27    15    16   ar
    28    16    17   ar
    29    17    18   ar
    30    18    19   ar
    31    12    13   ar
    32    13     8   ar
    33     6     1    1
    34    19    14   ar
    35    32    23    1
    36    32    26    1
@<TRIPOS>MOLECULE
*****
 32 36 0 0 0
SMALL
GASTEIGER

@<TRIPOS>ATOM
      1 N         139.6132  139.9212  166.0272 N.pl3   1  UNL1       -0.3046
      2 C         140.6087  138.9197  165.5211 C.3     1  UNL1        0.1081
      3 C         140.4357  138.3117  164.1609 C.3     1  UNL1        0.0938
      4 N         139.2673  138.7051  163.3066 N.3     1  UNL1       -0.2698
      5 C         138.2717  139.7066  163.8125 C.3     1  UNL1        0.0938
      6 C         138.4447  140.3146  165.1729 C.3     1  UNL1        0.1081
      7 F         140.3051  142.3531  171.4683 F       1  UNL1       -0.2042
      8 C         140.1321  141.7451  170.1081 C.ar    1  UNL1        0.1402
      9 C         139.2038  140.5821  169.9189 C.ar    1  UNL1        0.0309
     10 C         139.0309  139.9742  168.5585 C.ar    1  UNL1        0.0168
     11 C         139.7862  140.5292  167.3874 C.ar    1  UNL1        0.0480
     12 C         140.7144  141.6922  167.5767 C.ar    1  UNL1        0.0156
     13 C         140.8874  142.3001  168.9370 C.ar    1  UNL1        0.0309
     14 C         141.4697  142.2472  166.4056 C.ar    1  UNL1        0.0013
     15 C         142.8843  141.8170  166.1532 C.ar    1  UNL1        0.0000
     16 C         143.6396  142.3720  164.9821 C.ar    1  UNL1        0.0000
     17 C         142.9802  143.3574  164.0634 C.ar    1  UNL1        0.0000
     18 C         141.5656  143.7877  164.3156 C.ar    1  UNL1        0.0000
     19 C         140.8103  143.2327  165.4867 C.ar    1  UNL1        0.0000
     20 C         139.0942  138.0971  161.9463 C.3     1  UNL1        0.0725
     21 C         139.4813  138.8740  160.7229 C.3     1  UNL1        0.0221
     22 C         138.6851  140.0785  160.3163 C.3     1  UNL1        0.0294
     23 C         139.3624  141.4079  160.1614 C.2     1  UNL1       -0.0018
     24 C         140.3841  141.7611  159.1215 C.2     1  UNL1        0.0942
     25 N         140.7900  143.1890  159.3367 N.2     1  UNL1       -0.2482
     26 C         140.0193  143.7183  160.5096 C.2     1  UNL1        0.0632
     27 C         140.0069  145.0604  161.1793 C.3     1  UNL1        0.0741
     28 C         139.1121  145.3017  162.3588 C.2     1  UNL1        0.0098
     29 C         138.2298  144.2010  162.8685 C.2     1  UNL1        0.1363
     30 F         137.3350  144.4423  164.0481 F       1  UNL1       -0.2045
     31 C         138.2422  142.8589  162.1988 C.2     1  UNL1        0.0302
     32 C         139.1369  142.6175  161.0193 C.2     1  UNL1        0.0136
@<TRIPOS>BOND
     1     7     8    1
     2     8     9   ar
     3     9    10   ar
     4    10    11   ar
     5    11     1    1
     6     1     2    1
     7     2     3    1
     8     3     4    1
     9     4    20    1
    10    20    21    1
    11    21    22    1
    12    22    23    1
    13    23    24    2
    14    24    25    1
    15    25    26    2
    16    26    27    1
    17    27    28    1
    18    28    29    2
    19    29    30    1
    20    29    31    1
    21    31    32    2
    22     4     5    1
    23     5     6    1
    24    11    12   ar
    25    12    14    1
    26    14    15   ar
    27    15    16   ar
    28    16    17   ar
    29    17    18   ar
    30    18    19   ar
    31    12    13   ar
    32    13     8   ar
    33     6     1    1
    34    19    14   ar
    35    32    23    1
    36    32    26    1
