@<TRIPOS>MOLECULE
*****
 30 35 0 0 0
SMALL
GASTEIGER

@<TRIPOS>ATOM
      1 N         137.7115  138.4473  166.7506 N.pl3   1  UNL1       -0.3133
      2 C         138.7389  138.3337  165.6636 C.2     1  UNL1        0.2770
      3 N         140.0301  139.0935  165.5879 N.2     1  UNL1       -0.2202
      4 C         140.7446  138.6699  164.3390 C.3     1  UNL1        0.1580
      5 C         139.8950  137.6483  163.6428 C.3     1  UNL1        0.2351
      6 O         138.6554  137.4406  164.4614 O.2     1  UNL1       -0.4478
      7 C         141.4821  139.6976  165.1450 C.ar    1  UNL1        0.0357
      8 C         140.8891  140.2168  166.4213 C.ar    1  UNL1        0.0008
      9 C         141.6266  141.2446  167.2273 C.ar    1  UNL1        0.0036
     10 C         142.9572  141.7532  166.7571 C.ar    1  UNL1        0.0032
     11 C         143.5502  141.2340  165.4809 C.ar    1  UNL1        0.0366
     12 C         142.8126  140.2062  164.6748 C.ar    1  UNL1        0.1360
     13 O         143.4056  139.6870  163.3986 O.3     1  UNL1       -0.4826
     14 C         142.6681  138.6592  162.5925 C.3     1  UNL1        0.1395
     15 C         143.9317  138.9193  161.8272 C.3     1  UNL1        0.0404
     16 C         143.5067  137.9249  160.7876 C.3     1  UNL1        0.0072
     17 C         142.2431  137.6648  161.5530 C.3     1  UNL1        0.0404
     18 C         141.3376  138.1507  163.0628 C.3     1  UNL1        0.1141
     19 C         141.5434  138.4374  163.2876 C.3     1  UNL1        0.1501
     20 O         141.3271  138.1360  163.0513 O.3     1  UNL1       -0.3532
     21 C         141.5434  138.4374  163.2876 C.3     1  UNL1        0.1501
     22 H         137.8573  139.0652  167.5031 H       1  UNL1        0.1466
     23 H         136.8915  137.9039  166.7116 H       1  UNL1        0.1466
     24 C         141.0337  141.7638  168.5036 C.ar    1  UNL1        0.0460
     25 C         140.7346  143.2262  168.6512 C.ar    1  UNL1        0.0054
     26 C         140.1416  143.7454  169.9274 C.ar    1  UNL1        0.0208
     27 C         139.8477  142.8022  171.0561 C.ar    1  UNL1        0.1013
     28 N         140.1467  141.3397  170.9085 N.ar    1  UNL1       -0.2165
     29 C         140.7397  140.8205  169.6322 C.ar    1  UNL1        0.2222
     30 F         141.0388  139.3581  169.4846 F       1  UNL1       -0.1832
@<TRIPOS>BOND
     1     1     2    1
     2     2     3    2
     3     3     4    1
     4     4     5    1
     5     5     6    1
     6     4     7    1
     7     7     8   ar
     8     8     9   ar
     9     9    24    1
    10    24    25   ar
    11    25    26   ar
    12    26    27   ar
    13    27    28   ar
    14    28    29   ar
    15    29    30    1
    16     9    10   ar
    17    10    11   ar
    18    11    12   ar
    19    12    13    1
    20    13    14    1
    21    14    15    1
    22    15    16    1
    23    16    17    1
    24    14    18    1
    25    18    19    1
    26    19    20    1
    27    20    21    1
    28     6     2    1
    29    12     7   ar
    30    17    14    1
    31    21    18    1
    32    18     4    1
    33    29    24   ar
    34     1    22    1
    35     1    23    1
@<TRIPOS>MOLECULE
*****
 30 35 0 0 0
SMALL
GASTEIGER

@<TRIPOS>ATOM
      1 N         138.2460  145.2158  165.8302 N.pl3   1  UNL1       -0.3133
      2 C         138.2615  144.2560  164.6776 C.2     1  UNL1        0.2770
      3 N         138.7848  142.8505  164.7076 N.2     1  UNL1       -0.2202
      4 C         138.6031  142.2590  163.3412 C.3     1  UNL1        0.1580
      5 C         137.9676  143.2990  162.4667 C.3     1  UNL1        0.2351
      6 O         137.7565  144.5332  163.2927 O.2     1  UNL1       -0.4478
      7 C         139.2335  141.3252  164.3314 C.ar    1  UNL1        0.0357
      8 C         139.4779  141.7790  165.7400 C.ar    1  UNL1        0.0008
      9 C         140.1083  140.8452  166.7302 C.ar    1  UNL1        0.0036
     10 C         140.4943  139.4574  166.3117 C.ar    1  UNL1        0.0032
     11 C         140.2500  139.0035  164.9030 C.ar    1  UNL1        0.0366
     12 C         139.6196  139.9375  163.9129 C.ar    1  UNL1        0.1360
     13 O         139.3752  139.4836  162.5042 O.3     1  UNL1       -0.4826
     14 C         138.7448  140.4175  161.5140 C.3     1  UNL1        0.1395
     15 C         138.9871  139.1487  160.7513 C.3     1  UNL1        0.0404
     16 C         138.3993  139.7756  159.5218 C.3     1  UNL1        0.0072
     17 C         138.1571  141.0444  160.2845 C.3     1  UNL1        0.0404
     18 C         138.3588  141.8052  161.9325 C.3     1  UNL1        0.1141
     19 C         138.5346  141.5447  162.2087 C.3     1  UNL1        0.1501
     20 O         138.3498  141.8185  161.9184 O.3     1  UNL1       -0.3532
     21 C         138.5346  141.5447  162.2087 C.3     1  UNL1        0.1501
     22 H         138.6021  144.9397  166.7055 H       1  UNL1        0.1466
     23 H         137.8797  146.1219  165.7114 H       1  UNL1        0.1466
     24 C         140.3526  141.2990  168.1388 C.ar    1  UNL1        0.0460
     25 C         141.3983  142.3365  168.4218 C.ar    1  UNL1        0.0054
     26 C         141.6426  142.7903  169.8305 C.ar    1  UNL1        0.0208
     27 C         140.8413  142.2067  170.9562 C.ar    1  UNL1        0.1013
     28 N         139.7955  141.1691  170.6732 N.ar    1  UNL1       -0.2165
     29 C         139.5512  140.7153  169.2645 C.ar    1  UNL1        0.2222
     30 F         138.5055  139.6778  168.9815 F       1  UNL1       -0.1832
@<TRIPOS>BOND
     1     1     2    1
     2     2     3    2
     3     3     4    1
     4     4     5    1
     5     5     6    1
     6     4     7    1
     7     7     8   ar
     8     8     9   ar
     9     9    24    1
    10    24    25   ar
    11    25    26   ar
    12    26    27   ar
    13    27    28   ar
    14    28    29   ar
    15    29    30    1
    16     9    10   ar
    17    10    11   ar
    18    11    12   ar
    19    12    13    1
    20    13    14    1
    21    14    15    1
    22    15    16    1
    23    16    17    1
    24    14    18    1
    25    18    19    1
    26    19    20    1
    27    20    21    1
    28     6     2    1
    29    12     7   ar
    30    17    14    1
    31    21    18    1
    32    18     4    1
    33    29    24   ar
    34     1    22    1
    35     1    23    1
@<TRIPOS>MOLECULE
*****
 30 35 0 0 0
SMALL
GASTEIGER

@<TRIPOS>ATOM
      1 N         138.3389  139.6364  169.4877 N.pl3   1  UNL1       -0.3133
      2 C         138.4590  139.3196  168.0265 C.2     1  UNL1        0.2770
      3 N         139.5125  139.8415  167.0947 N.2     1  UNL1       -0.2202
      4 C         139.2513  139.2698  165.7329 C.3     1  UNL1        0.1580
      5 C         138.0364  138.3945  165.8228 C.3     1  UNL1        0.2351
      6 O         137.5468  138.4253  167.2403 O.2     1  UNL1       -0.4478
      7 C         140.4469  140.1733  165.7962 C.ar    1  UNL1        0.0357
      8 C         140.8314  140.8187  167.0945 C.ar    1  UNL1        0.0008
      9 C         142.0270  141.7223  167.1579 C.ar    1  UNL1        0.0036
     10 C         142.8382  141.9805  165.9228 C.ar    1  UNL1        0.0032
     11 C         142.4538  141.3351  164.6245 C.ar    1  UNL1        0.0366
     12 C         141.2581  140.4315  164.5612 C.ar    1  UNL1        0.1360
     13 O         140.8737  139.7861  163.2629 O.3     1  UNL1       -0.4826
     14 C         139.6781  138.8825  163.1995 C.3     1  UNL1        0.1395
     15 C         140.2256  138.9004  161.8031 C.3     1  UNL1        0.0404
     16 C         139.1344  137.9697  161.3634 C.3     1  UNL1        0.0072
     17 C         138.5869  137.9518  162.7598 C.3     1  UNL1        0.0404
     18 C         138.8669  138.6244  164.4346 C.3     1  UNL1        0.1141
     19 C         139.2004  138.8764  164.4522 C.3     1  UNL1        0.1501
     20 O         138.8499  138.6115  164.4336 O.3     1  UNL1       -0.3532
     21 C         139.2004  138.8764  164.4522 C.3     1  UNL1        0.1501
     22 H         138.9901  140.2379  169.9161 H       1  UNL1        0.1466
     23 H         137.6090  139.2429  170.0183 H       1  UNL1        0.1466
     24 C         142.4114  142.3677  168.4562 C.ar    1  UNL1        0.0460
     25 C         143.7950  142.1827  169.0050 C.ar    1  UNL1        0.0054
     26 C         144.1795  142.8281  170.3033 C.ar    1  UNL1        0.0208
     27 C         143.1802  143.6585  171.0529 C.ar    1  UNL1        0.1013
     28 N         141.7965  143.8436  170.5041 N.ar    1  UNL1       -0.2165
     29 C         141.4121  143.1982  169.2057 C.ar    1  UNL1        0.2222
     30 F         140.0284  143.3832  168.6570 F       1  UNL1       -0.1832
@<TRIPOS>BOND
     1     1     2    1
     2     2     3    2
     3     3     4    1
     4     4     5    1
     5     5     6    1
     6     4     7    1
     7     7     8   ar
     8     8     9   ar
     9     9    24    1
    10    24    25   ar
    11    25    26   ar
    12    26    27   ar
    13    27    28   ar
    14    28    29   ar
    15    29    30    1
    16     9    10   ar
    17    10    11   ar
    18    11    12   ar
    19    12    13    1
    20    13    14    1
    21    14    15    1
    22    15    16    1
    23    16    17    1
    24    14    18    1
    25    18    19    1
    26    19    20    1
    27    20    21    1
    28     6     2    1
    29    12     7   ar
    30    17    14    1
    31    21    18    1
    32    18     4    1
    33    29    24   ar
    34     1    22    1
    35     1    23    1
@<TRIPOS>MOLECULE
*****
 30 35 0 0 0
SMALL
GASTEIGER

@<TRIPOS>ATOM
      1 N         137.4533  140.7347  163.6638 N.pl3   1  UNL1       -0.3133
      2 C         138.3198  140.5237  164.8700 C.2     1  UNL1        0.2770
      3 N         139.6247  141.2089  165.1490 N.2     1  UNL1       -0.2202
      4 C         140.1448  140.6992  166.4602 C.3     1  UNL1        0.1580
      5 C         139.1614  139.6989  166.9917 C.3     1  UNL1        0.2351
      6 O         138.0335  139.5905  166.0088 O.2     1  UNL1       -0.4478
      7 C         141.0322  141.7160  165.8056 C.ar    1  UNL1        0.0357
      8 C         140.6407  142.3156  164.4876 C.ar    1  UNL1        0.0008
      9 C         141.5281  143.3324  163.8330 C.ar    1  UNL1        0.0036
     10 C         142.8071  143.7497  164.4964 C.ar    1  UNL1        0.0032
     11 C         143.1987  143.1501  165.8144 C.ar    1  UNL1        0.0366
     12 C         142.3112  142.1332  166.4690 C.ar    1  UNL1        0.1360
     13 O         142.7028  141.5336  167.7870 O.3     1  UNL1       -0.4826
     14 C         141.8154  140.5168  168.4417 C.3     1  UNL1        0.1395
     15 C         142.9767  140.6783  169.3773 C.3     1  UNL1        0.0404
     16 C         142.3691  139.6688  170.3057 C.3     1  UNL1        0.0072
     17 C         141.2078  139.5073  169.3701 C.3     1  UNL1        0.0404
     18 C         140.5364  140.0996  167.7783 C.3     1  UNL1        0.1141
     19 C         140.7840  140.3833  167.5957 C.3     1  UNL1        0.1501
     20 O         140.5238  140.0851  167.7876 O.3     1  UNL1       -0.3532
     21 C         140.7840  140.3833  167.5957 C.3     1  UNL1        0.1501
     22 H         137.7280  141.3725  162.9660 H       1  UNL1        0.1466
     23 H         136.6100  140.2354  163.5701 H       1  UNL1        0.1466
     24 C         141.1365  143.9320  162.5150 C.ar    1  UNL1        0.0460
     25 C         141.8893  143.5646  161.2707 C.ar    1  UNL1        0.0054
     26 C         141.4977  144.1642  159.9526 C.ar    1  UNL1        0.0208
     27 C         140.3534  145.1312  159.8789 C.ar    1  UNL1        0.1013
     28 N         139.6006  145.4986  161.1233 N.ar    1  UNL1       -0.2165
     29 C         139.9922  144.8990  162.4413 C.ar    1  UNL1        0.2222
     30 F         139.2395  145.2664  163.6856 F       1  UNL1       -0.1832
@<TRIPOS>BOND
     1     1     2    1
     2     2     3    2
     3     3     4    1
     4     4     5    1
     5     5     6    1
     6     4     7    1
     7     7     8   ar
     8     8     9   ar
     9     9    24    1
    10    24    25   ar
    11    25    26   ar
    12    26    27   ar
    13    27    28   ar
    14    28    29   ar
    15    29    30    1
    16     9    10   ar
    17    10    11   ar
    18    11    12   ar
    19    12    13    1
    20    13    14    1
    21    14    15    1
    22    15    16    1
    23    16    17    1
    24    14    18    1
    25    18    19    1
    26    19    20    1
    27    20    21    1
    28     6     2    1
    29    12     7   ar
    30    17    14    1
    31    21    18    1
    32    18     4    1
    33    29    24   ar
    34     1    22    1
    35     1    23    1
@<TRIPOS>MOLECULE
*****
 30 35 0 0 0
SMALL
GASTEIGER

@<TRIPOS>ATOM
      1 N         142.7598  142.4224  163.3229 N.pl3   1  UNL1       -0.3133
      2 C         142.6492  142.2006  164.8023 C.2     1  UNL1        0.2770
      3 N         141.5619  141.4390  165.5009 N.2     1  UNL1       -0.2202
      4 C         141.8472  141.4691  166.9731 C.3     1  UNL1        0.1580
      5 C         143.1109  142.2492  167.1845 C.3     1  UNL1        0.2351
      6 O         143.6066  142.7012  165.8428 O.2     1  UNL1       -0.4478
      7 C         140.6021  140.7165  166.6082 C.ar    1  UNL1        0.0357
      8 C         140.1891  140.6019  165.1707 C.ar    1  UNL1        0.0008
      9 C         138.9439  139.8494  164.8058 C.ar    1  UNL1        0.0036
     10 C         138.1117  139.2113  165.8784 C.ar    1  UNL1        0.0032
     11 C         138.5247  139.3259  167.3159 C.ar    1  UNL1        0.0366
     12 C         139.7699  140.0785  167.6808 C.ar    1  UNL1        0.1360
     13 O         140.1829  140.1931  169.1182 O.3     1  UNL1       -0.4826
     14 C         141.4281  140.9457  169.4831 C.3     1  UNL1        0.1395
     15 C         140.8720  140.4590  170.7885 C.3     1  UNL1        0.0404
     16 C         142.0121  141.1077  171.5161 C.3     1  UNL1        0.0072
     17 C         142.5682  141.5944  170.2107 C.3     1  UNL1        0.0404
     18 C         142.2602  141.5837  168.4106 C.3     1  UNL1        0.1141
     19 C         141.9128  141.3737  168.3088 C.3     1  UNL1        0.1501
     20 O         142.2780  141.5944  168.4158 O.3     1  UNL1       -0.3532
     21 C         141.9128  141.3737  168.3088 C.3     1  UNL1        0.1501
     22 H         142.0778  142.0519  162.7173 H       1  UNL1        0.1466
     23 H         143.5143  142.9386  162.9576 H       1  UNL1        0.1466
     24 C         138.5309  139.7348  163.3684 C.ar    1  UNL1        0.0460
     25 C         138.9385  138.5360  162.5642 C.ar    1  UNL1        0.0054
     26 C         138.5255  138.4214  161.1267 C.ar    1  UNL1        0.0208
     27 C         137.7049  139.5056  160.4934 C.ar    1  UNL1        0.1013
     28 N         137.2973  140.7045  161.2976 N.ar    1  UNL1       -0.2165
     29 C         137.7103  140.8191  162.7351 C.ar    1  UNL1        0.2222
     30 F         137.3028  142.0179  163.5392 F       1  UNL1       -0.1832
@<TRIPOS>BOND
     1     1     2    1
     2     2     3    2
     3     3     4    1
     4     4     5    1
     5     5     6    1
     6     4     7    1
     7     7     8   ar
     8     8     9   ar
     9     9    24    1
    10    24    25   ar
    11    25    26   ar
    12    26    27   ar
    13    27    28   ar
    14    28    29   ar
    15    29    30    1
    16     9    10   ar
    17    10    11   ar
    18    11    12   ar
    19    12    13    1
    20    13    14    1
    21    14    15    1
    22    15    16    1
    23    16    17    1
    24    14    18    1
    25    18    19    1
    26    19    20    1
    27    20    21    1
    28     6     2    1
    29    12     7   ar
    30    17    14    1
    31    21    18    1
    32    18     4    1
    33    29    24   ar
    34     1    22    1
    35     1    23    1
@<TRIPOS>MOLECULE
*****
 30 35 0 0 0
SMALL
GASTEIGER

@<TRIPOS>ATOM
      1 N         145.8637  141.2609  164.1712 N.pl3   1  UNL1       -0.3133
      2 C         144.8915  142.0436  163.3391 C.2     1  UNL1        0.2770
      3 N         143.5340  142.5102  163.7746 N.2     1  UNL1       -0.2202
      4 C         142.9097  143.2520  162.6301 C.3     1  UNL1        0.1580
      5 C         143.8814  143.2438  161.4873 C.3     1  UNL1        0.2351
      6 O         145.1062  142.4970  161.9255 O.2     1  UNL1       -0.4478
      7 C         142.0450  143.1782  163.8536 C.ar    1  UNL1        0.0357
      8 C         142.5380  142.4665  165.0785 C.ar    1  UNL1        0.0008
      9 C         141.6733  142.3927  166.3020 C.ar    1  UNL1        0.0036
     10 C         140.3157  143.0307  166.3006 C.ar    1  UNL1        0.0032
     11 C         139.8228  143.7424  165.0756 C.ar    1  UNL1        0.0366
     12 C         140.6875  143.8161  163.8521 C.ar    1  UNL1        0.1360
     13 O         140.1946  144.5278  162.6271 O.3     1  UNL1       -0.4826
     14 C         141.0592  144.6016  161.4037 C.3     1  UNL1        0.1395
     15 C         139.8034  145.3351  161.0363 C.3     1  UNL1        0.0404
     16 C         140.3621  145.6081  159.6712 C.3     1  UNL1        0.0072
     17 C         141.6179  144.8745  160.0385 C.3     1  UNL1        0.0404
     18 C         142.4168  143.9636  161.4052 C.3     1  UNL1        0.1141
     19 C         142.1755  143.9431  161.7465 C.3     1  UNL1        0.1501
     20 O         142.4291  143.9647  161.3877 O.3     1  UNL1       -0.3532
     21 C         142.1755  143.9431  161.7465 C.3     1  UNL1        0.1501
     22 H         145.6305  141.0087  165.0938 H       1  UNL1        0.1466
     23 H         146.7350  140.9995  163.7947 H       1  UNL1        0.1466
     24 C         142.1663  141.6811  167.5270 C.ar    1  UNL1        0.0460
     25 C         142.9241  142.4356  168.5788 C.ar    1  UNL1        0.0054
     26 C         143.4171  141.7239  169.8037 C.ar    1  UNL1        0.0208
     27 C         143.1521  140.2577  169.9769 C.ar    1  UNL1        0.1013
     28 N         142.3942  139.5031  168.9251 N.ar    1  UNL1       -0.2165
     29 C         141.9013  140.2148  167.7001 C.ar    1  UNL1        0.2222
     30 F         141.1434  139.4603  166.6484 F       1  UNL1       -0.1832
@<TRIPOS>BOND
     1     1     2    1
     2     2     3    2
     3     3     4    1
     4     4     5    1
     5     5     6    1
     6     4     7    1
     7     7     8   ar
     8     8     9   ar
     9     9    24    1
    10    24    25   ar
    11    25    26   ar
    12    26    27   ar
    13    27    28   ar
    14    28    29   ar
    15    29    30    1
    16     9    10   ar
    17    10    11   ar
    18    11    12   ar
    19    12    13    1
    20    13    14    1
    21    14    15    1
    22    15    16    1
    23    16    17    1
    24    14    18    1
    25    18    19    1
    26    19    20    1
    27    20    21    1
    28     6     2    1
    29    12     7   ar
    30    17    14    1
    31    21    18    1
    32    18     4    1
    33    29    24   ar
    34     1    22    1
    35     1    23    1
@<TRIPOS>MOLECULE
*****
 30 35 0 0 0
SMALL
GASTEIGER

@<TRIPOS>ATOM
      1 N         143.5396  142.8609  165.5492 N.pl3   1  UNL1       -0.3133
      2 C         142.5386  142.3354  164.5635 C.2     1  UNL1        0.2770
      3 N         141.3634  141.4592  164.8823 N.2     1  UNL1       -0.2202
      4 C         140.6355  141.1760  163.6019 C.3     1  UNL1        0.1580
      5 C         141.3607  141.8772  162.4916 C.3     1  UNL1        0.2351
      6 O         142.5368  142.5937  163.0860 O.2     1  UNL1       -0.4478
      7 C         140.0190  140.5338  164.8090 C.ar    1  UNL1        0.0357
      8 C         140.6386  140.7287  166.1611 C.ar    1  UNL1        0.0008
      9 C         140.0221  140.0864  167.3683 C.ar    1  UNL1        0.0036
     10 C         138.7859  139.2491  167.2234 C.ar    1  UNL1        0.0032
     11 C         138.1663  139.0541  165.8714 C.ar    1  UNL1        0.0366
     12 C         138.7829  139.6965  164.6641 C.ar    1  UNL1        0.1360
     13 O         138.1633  139.5015  163.3121 O.3     1  UNL1       -0.4826
     14 C         138.7798  140.1438  162.1049 C.3     1  UNL1        0.1395
     15 C         137.5853  139.4019  161.5825 C.3     1  UNL1        0.0404
     16 C         137.9035  139.8681  160.1927 C.3     1  UNL1        0.0072
     17 C         139.0980  140.6100  160.7151 C.3     1  UNL1        0.0404
     18 C         140.0159  140.9811  162.2498 C.3     1  UNL1        0.1141
     19 C         139.8439  140.8019  162.5865 C.3     1  UNL1        0.1501
     20 O         140.0247  140.9902  162.2326 O.3     1  UNL1       -0.3532
     21 C         139.8439  140.8019  162.5865 C.3     1  UNL1        0.1501
     22 H         143.4560  142.6349  166.5038 H       1  UNL1        0.1466
     23 H         144.2803  143.4319  165.2416 H       1  UNL1        0.1466
     24 C         140.6416  140.2814  168.7204 C.ar    1  UNL1        0.0460
     25 C         142.1342  140.2747  168.8694 C.ar    1  UNL1        0.0054
     26 C         142.7537  140.4696  170.2215 C.ar    1  UNL1        0.0208
     27 C         141.8808  140.6713  171.4245 C.ar    1  UNL1        0.1013
     28 N         140.3882  140.6780  171.2755 N.ar    1  UNL1       -0.2165
     29 C         139.7686  140.4831  169.9234 C.ar    1  UNL1        0.2222
     30 F         138.2761  140.4898  169.7743 F       1  UNL1       -0.1832
@<TRIPOS>BOND
     1     1     2    1
     2     2     3    2
     3     3     4    1
     4     4     5    1
     5     5     6    1
     6     4     7    1
     7     7     8   ar
     8     8     9   ar
     9     9    24    1
    10    24    25   ar
    11    25    26   ar
    12    26    27   ar
    13    27    28   ar
    14    28    29   ar
    15    29    30    1
    16     9    10   ar
    17    10    11   ar
    18    11    12   ar
    19    12    13    1
    20    13    14    1
    21    14    15    1
    22    15    16    1
    23    16    17    1
    24    14    18    1
    25    18    19    1
    26    19    20    1
    27    20    21    1
    28     6     2    1
    29    12     7   ar
    30    17    14    1
    31    21    18    1
    32    18     4    1
    33    29    24   ar
    34     1    22    1
    35     1    23    1
@<TRIPOS>MOLECULE
*****
 30 35 0 0 0
SMALL
GASTEIGER

@<TRIPOS>ATOM
      1 N         141.8819  145.5523  164.1029 N.pl3   1  UNL1       -0.3133
      2 C         141.0867  144.5497  163.3204 C.2     1  UNL1        0.2770
      3 N         140.5172  143.2676  163.8516 N.2     1  UNL1       -0.2202
      4 C         139.8000  142.5787  162.7288 C.3     1  UNL1        0.1580
      5 C         139.9262  143.4349  161.5036 C.3     1  UNL1        0.2351
      6 O         140.7214  144.6531  161.8692 O.2     1  UNL1       -0.4478
      7 C         139.7577  141.8320  164.0290 C.ar    1  UNL1        0.0357
      8 C         140.4328  142.3997  165.2422 C.ar    1  UNL1        0.0008
      9 C         140.3905  141.6530  166.5425 C.ar    1  UNL1        0.0036
     10 C         139.6730  140.3386  166.6295 C.ar    1  UNL1        0.0032
     11 C         138.9979  139.7709  165.4163 C.ar    1  UNL1        0.0366
     12 C         139.0402  140.5176  164.1160 C.ar    1  UNL1        0.1360
     13 O         138.3651  139.9499  162.9028 O.3     1  UNL1       -0.4826
     14 C         138.4074  140.6966  161.6026 C.3     1  UNL1        0.1395
     15 C         137.6198  139.4536  161.3110 C.3     1  UNL1        0.0404
     16 C         137.4527  139.8937  159.8867 C.3     1  UNL1        0.0072
     17 C         138.2402  141.1366  160.1783 C.3     1  UNL1        0.0404
     18 C         139.1249  142.0110  161.5156 C.3     1  UNL1        0.1141
     19 C         139.1131  141.8026  161.8783 C.3     1  UNL1        0.1501
     20 O         139.1255  142.0216  161.4970 O.3     1  UNL1       -0.3532
     21 C         139.1131  141.8026  161.8783 C.3     1  UNL1        0.1501
     22 H         142.0711  145.3947  165.0561 H       1  UNL1        0.1466
     23 H         142.2145  146.3680  163.6634 H       1  UNL1        0.1466
     24 C         141.0656  142.2207  167.7557 C.ar    1  UNL1        0.0460
     25 C         140.2523  142.8979  168.8187 C.ar    1  UNL1        0.0054
     26 C         140.9274  143.4656  170.0319 C.ar    1  UNL1        0.0208
     27 C         142.4158  143.3562  170.1822 C.ar    1  UNL1        0.1013
     28 N         143.2292  142.6790  169.1191 N.ar    1  UNL1       -0.2165
     29 C         142.5541  142.1113  167.9059 C.ar    1  UNL1        0.2222
     30 F         143.3674  141.4342  166.8429 F       1  UNL1       -0.1832
@<TRIPOS>BOND
     1     1     2    1
     2     2     3    2
     3     3     4    1
     4     4     5    1
     5     5     6    1
     6     4     7    1
     7     7     8   ar
     8     8     9   ar
     9     9    24    1
    10    24    25   ar
    11    25    26   ar
    12    26    27   ar
    13    27    28   ar
    14    28    29   ar
    15    29    30    1
    16     9    10   ar
    17    10    11   ar
    18    11    12   ar
    19    12    13    1
    20    13    14    1
    21    14    15    1
    22    15    16    1
    23    16    17    1
    24    14    18    1
    25    18    19    1
    26    19    20    1
    27    20    21    1
    28     6     2    1
    29    12     7   ar
    30    17    14    1
    31    21    18    1
    32    18     4    1
    33    29    24   ar
    34     1    22    1
    35     1    23    1
@<TRIPOS>MOLECULE
*****
 30 35 0 0 0
SMALL
GASTEIGER

@<TRIPOS>ATOM
      1 N         144.8982  144.0374  165.8657 N.pl3   1  UNL1       -0.3133
      2 C         143.9688  143.9641  164.6906 C.2     1  UNL1        0.2770
      3 N         142.6291  143.2896  164.6669 N.2     1  UNL1       -0.2202
      4 C         142.0481  143.4610  163.2947 C.3     1  UNL1        0.1580
      5 C         143.0287  144.2414  162.4703 C.3     1  UNL1        0.2351
      6 O         144.2157  144.5523  163.3331 O.2     1  UNL1       -0.4478
      7 C         141.1701  142.6926  164.2373 C.ar    1  UNL1        0.0357
      8 C         141.6204  142.4422  165.6461 C.ar    1  UNL1        0.0008
      9 C         140.7424  141.6737  166.5887 C.ar    1  UNL1        0.0036
     10 C         139.4141  141.1557  166.1226 C.ar    1  UNL1        0.0032
     11 C         138.9638  141.4061  164.7139 C.ar    1  UNL1        0.0366
     12 C         139.8418  142.1746  163.7712 C.ar    1  UNL1        0.1360
     13 O         139.3915  142.4250  162.3625 O.3     1  UNL1       -0.4826
     14 C         140.2695  143.1934  161.4199 C.3     1  UNL1        0.1395
     15 C         139.0503  142.8453  160.6183 C.3     1  UNL1        0.0404
     16 C         139.6327  143.5476  159.4275 C.3     1  UNL1        0.0072
     17 C         140.8519  143.8957  160.2291 C.3     1  UNL1        0.0404
     18 C         141.5978  143.7114  161.8860 C.3     1  UNL1        0.1141
     19 C         141.3529  143.4970  162.1489 C.3     1  UNL1        0.1501
     20 O         141.6103  143.7224  161.8725 O.3     1  UNL1       -0.3532
     21 C         141.3529  143.4970  162.1489 C.3     1  UNL1        0.1501
     22 H         144.6459  143.6179  166.7198 H       1  UNL1        0.1466
     23 H         145.7606  144.5050  165.7827 H       1  UNL1        0.1466
     24 C         141.1927  141.4233  167.9974 C.ar    1  UNL1        0.0460
     25 C         141.9415  140.1678  168.3335 C.ar    1  UNL1        0.0054
     26 C         142.3918  139.9174  169.7422 C.ar    1  UNL1        0.0208
     27 C         142.0933  140.9225  170.8149 C.ar    1  UNL1        0.1013
     28 N         141.3445  142.1781  170.4789 N.ar    1  UNL1       -0.2165
     29 C         140.8942  142.4285  169.0701 C.ar    1  UNL1        0.2222
     30 F         140.1454  143.6840  168.7341 F       1  UNL1       -0.1832
@<TRIPOS>BOND
     1     1     2    1
     2     2     3    2
     3     3     4    1
     4     4     5    1
     5     5     6    1
     6     4     7    1
     7     7     8   ar
     8     8     9   ar
     9     9    24    1
    10    24    25   ar
    11    25    26   ar
    12    26    27   ar
    13    27    28   ar
    14    28    29   ar
    15    29    30    1
    16     9    10   ar
    17    10    11   ar
    18    11    12   ar
    19    12    13    1
    20    13    14    1
    21    14    15    1
    22    15    16    1
    23    16    17    1
    24    14    18    1
    25    18    19    1
    26    19    20    1
    27    20    21    1
    28     6     2    1
    29    12     7   ar
    30    17    14    1
    31    21    18    1
    32    18     4    1
    33    29    24   ar
    34     1    22    1
    35     1    23    1
