@<TRIPOS>MOLECULE
*****
 33 37 0 0 0
SMALL
GASTEIGER

@<TRIPOS>ATOM
      1 N         140.0734  139.9921  166.5718 N.ar    1  UNL1       -0.2815
      2 C         139.4392  139.9069  167.9285 C.ar    1  UNL1        0.3316
      3 O         138.2095  139.1230  168.2793 O.2     1  UNL1       -0.2463
      4 N         140.2508  140.7434  168.8728 N.ar    1  UNL1       -0.2765
      5 C         139.9751  140.9427  170.3337 C.3     1  UNL1        0.1352
      6 C         141.3865  141.3455  168.0998 C.ar    1  UNL1        0.0989
      7 C         142.5063  142.2566  168.5070 C.ar    1  UNL1        0.1175
      8 N         143.5165  142.7033  167.4922 N.ar    1  UNL1       -0.2422
      9 C         143.4068  142.2390  166.0701 C.ar    1  UNL1        0.0850
     10 C         144.4171  142.6858  165.0552 C.ar    1  UNL1        0.0488
     11 C         144.3074  142.2215  163.6331 C.ar    1  UNL1        0.1416
     12 F         145.3176  142.6683  162.6183 F       1  UNL1       -0.2041
     13 C         143.1875  141.3104  163.2259 C.ar    1  UNL1        0.0291
     14 C         142.1774  140.8636  164.2407 C.ar    1  UNL1        0.0053
     15 C         142.2870  141.3279  165.6628 C.ar    1  UNL1        0.0352
     16 C         141.2769  140.8812  166.6776 C.ar    1  UNL1        0.0826
     17 C         143.0779  140.8461  161.8038 C.ar    1  UNL1        0.0213
     18 C         142.0158  141.4136  160.9093 C.ar    1  UNL1        0.0029
     19 C         141.9061  140.9493  159.4872 C.ar    1  UNL1        0.0165
     20 C         142.8585  139.9174  158.9595 C.ar    1  UNL1        0.0828
     21 N         143.9205  139.3500  159.8540 N.ar    1  UNL1       -0.2464
     22 C         144.0302  139.8143  161.2761 C.ar    1  UNL1        0.0985
     23 C         142.7489  139.4531  157.5374 C.3     1  UNL1        0.1962
     24 S         142.6978  137.9859  157.2293 S.O2    1  UNL1       -0.0025
     25 C         142.6469  136.5188  156.9212 C.3     1  UNL1        0.1765
     26 O         141.4053  137.8728  157.9820 O.2     1  UNL1       -0.1726
     27 O         143.9904  138.0991  156.4767 O.2     1  UNL1       -0.1726
     28 C         138.9043  138.3411  163.5683 C.3     1  UNL1        0.1191
     29 C         138.5932  139.6376  164.2555 C.3     1  UNL1        0.0524
     30 C         139.5891  139.3083  165.3277 C.3     1  UNL1        0.0947
     31 C         139.9002  138.0117  164.6405 C.3     1  UNL1        0.0524
     32 C         138.9789  138.0473  160.9879 C.3     1  UNL1        0.1740
     33 O         138.4200  137.6572  162.3242 O.3     1  UNL1       -0.3534
@<TRIPOS>BOND
     1    32    33    1
     2    28    33    1
     3    28    29    1
     4    29    30    1
     5    30     1    1
     6     1     2   ar
     7     2     3    2
     8     2     4   ar
     9     4     5    1
    10     4     6   ar
    11     6     7   ar
    12     7     8   ar
    13     8     9   ar
    14     9    10   ar
    15    10    11   ar
    16    11    12    1
    17    11    13   ar
    18    13    17    1
    19    17    18   ar
    20    18    19   ar
    21    19    20   ar
    22    20    23    1
    23    23    24    1
    24    24    25    1
    25    24    26    2
    26    24    27    2
    27    20    21   ar
    28    21    22   ar
    29    13    14   ar
    30    14    15   ar
    31    15    16   ar
    32    30    31    1
    33    31    28    1
    34    16     1   ar
    35    16     6   ar
    36    15     9   ar
    37    22    17   ar
@<TRIPOS>MOLECULE
*****
 33 37 0 0 0
SMALL
GASTEIGER

@<TRIPOS>ATOM
      1 N         142.5890  141.5326  167.2373 N.ar    1  UNL1       -0.2815
      2 C         142.8931  142.0586  168.6087 C.ar    1  UNL1        0.3316
      3 O         144.0940  142.8699  168.9956 O.2     1  UNL1       -0.2463
      4 N         141.7855  141.6308  169.5253 N.ar    1  UNL1       -0.2765
      5 C         141.6843  141.9393  170.9898 C.3     1  UNL1        0.1352
      6 C         140.7969  140.8405  168.7204 C.ar    1  UNL1        0.0989
      7 C         139.5086  140.1682  169.0924 C.ar    1  UNL1        0.1175
      8 N         138.7170  139.4352  168.0503 N.ar    1  UNL1       -0.2422
      9 C         139.2136  139.3745  166.6362 C.ar    1  UNL1        0.0850
     10 C         138.4219  138.6415  165.5941 C.ar    1  UNL1        0.0488
     11 C         138.9185  138.5807  164.1800 C.ar    1  UNL1        0.1416
     12 F         138.1268  137.8478  163.1379 F       1  UNL1       -0.2041
     13 C         140.2068  139.2530  163.8080 C.ar    1  UNL1        0.0291
     14 C         140.9985  139.9860  164.8501 C.ar    1  UNL1        0.0053
     15 C         140.5018  140.0467  166.2642 C.ar    1  UNL1        0.0352
     16 C         141.2935  140.7797  167.3063 C.ar    1  UNL1        0.0826
     17 C         140.7034  139.1923  162.3939 C.ar    1  UNL1        0.0213
     18 C         141.6335  138.0935  161.9722 C.ar    1  UNL1        0.0029
     19 C         142.1301  138.0328  160.5581 C.ar    1  UNL1        0.0165
     20 C         141.6967  139.0708  159.5657 C.ar    1  UNL1        0.0828
     21 N         140.7667  140.1696  159.9875 N.ar    1  UNL1       -0.2464
     22 C         140.2701  140.2303  161.4016 C.ar    1  UNL1        0.0985
     23 C         142.1933  139.0101  158.1516 C.3     1  UNL1        0.1962
     24 S         141.9407  137.7876  157.3199 S.O2    1  UNL1       -0.0025
     25 C         141.6882  136.5651  156.4881 C.3     1  UNL1        0.1765
     26 O         140.4622  137.9923  157.4678 O.2     1  UNL1       -0.1726
     27 O         143.4192  137.5829  157.1719 O.2     1  UNL1       -0.1726
     28 C         144.6252  141.9983  164.2790 C.3     1  UNL1        0.1191
     29 C         143.9607  142.9136  165.2642 C.3     1  UNL1        0.0524
     30 C         143.4324  141.7255  166.0119 C.3     1  UNL1        0.0947
     31 C         144.0969  140.8101  165.0267 C.3     1  UNL1        0.0524
     32 C         144.8266  142.2202  161.6983 C.3     1  UNL1        0.1740
     33 O         145.4685  142.1912  163.0536 O.3     1  UNL1       -0.3534
@<TRIPOS>BOND
     1    32    33    1
     2    28    33    1
     3    28    29    1
     4    29    30    1
     5    30     1    1
     6     1     2   ar
     7     2     3    2
     8     2     4   ar
     9     4     5    1
    10     4     6   ar
    11     6     7   ar
    12     7     8   ar
    13     8     9   ar
    14     9    10   ar
    15    10    11   ar
    16    11    12    1
    17    11    13   ar
    18    13    17    1
    19    17    18   ar
    20    18    19   ar
    21    19    20   ar
    22    20    23    1
    23    23    24    1
    24    24    25    1
    25    24    26    2
    26    24    27    2
    27    20    21   ar
    28    21    22   ar
    29    13    14   ar
    30    14    15   ar
    31    15    16   ar
    32    30    31    1
    33    31    28    1
    34    16     1   ar
    35    16     6   ar
    36    15     9   ar
    37    22    17   ar
@<TRIPOS>MOLECULE
*****
 33 37 0 0 0
SMALL
GASTEIGER

@<TRIPOS>ATOM
      1 N         142.7561  142.3475  160.8867 N.ar    1  UNL1       -0.2815
      2 C         143.3763  142.4851  159.5278 C.ar    1  UNL1        0.3316
      3 O         144.5358  141.6911  159.0033 O.2     1  UNL1       -0.2463
      4 N         142.6333  143.5561  158.7856 N.ar    1  UNL1       -0.2765
      5 C         142.9194  144.0212  157.3885 C.3     1  UNL1        0.1352
      6 C         141.5540  144.0804  159.6857 C.ar    1  UNL1        0.0989
      7 C         140.5119  145.1415  159.4907 C.ar    1  UNL1        0.1175
      8 N         139.5457  145.4556  160.5942 N.ar    1  UNL1       -0.2422
      9 C         139.6216  144.7086  161.8928 C.ar    1  UNL1        0.0850
     10 C         138.6553  145.0227  162.9963 C.ar    1  UNL1        0.0488
     11 C         138.7313  144.2757  164.2949 C.ar    1  UNL1        0.1416
     12 F         137.7651  144.5898  165.3984 F       1  UNL1       -0.2041
     13 C         139.7734  143.2146  164.4899 C.ar    1  UNL1        0.0291
     14 C         140.7396  142.9005  163.3863 C.ar    1  UNL1        0.0053
     15 C         140.6637  143.6475  162.0878 C.ar    1  UNL1        0.0352
     16 C         141.6299  143.3334  160.9843 C.ar    1  UNL1        0.0826
     17 C         139.8494  142.4676  165.7884 C.ar    1  UNL1        0.0213
     18 C         140.3460  143.1590  167.0235 C.ar    1  UNL1        0.0029
     19 C         140.4219  142.4120  168.3220 C.ar    1  UNL1        0.0165
     20 C         140.0012  140.9736  168.3855 C.ar    1  UNL1        0.0828
     21 N         139.5046  140.2822  167.1505 N.ar    1  UNL1       -0.2464
     22 C         139.4287  141.0292  165.8519 C.ar    1  UNL1        0.0985
     23 C         140.0771  140.2266  169.6841 C.3     1  UNL1        0.1962
     24 S         141.3700  140.1709  170.4428 S.O2    1  UNL1       -0.0025
     25 C         142.6627  140.1152  171.2015 C.3     1  UNL1        0.1765
     26 O         141.9940  139.3928  169.3225 O.2     1  UNL1       -0.1726
     27 O         140.7459  140.9490  171.5631 O.2     1  UNL1       -0.1726
     28 C         143.7955  140.0401  163.4770 C.3     1  UNL1        0.1191
     29 C         142.8366  139.9797  162.3251 C.3     1  UNL1        0.0524
     30 C         143.1866  141.3917  161.9596 C.3     1  UNL1        0.0947
     31 C         144.1455  141.4521  163.1116 C.3     1  UNL1        0.0524
     32 C         143.3296  138.8208  165.7234 C.3     1  UNL1        0.1740
     33 O         144.2260  139.0843  164.5499 O.3     1  UNL1       -0.3534
@<TRIPOS>BOND
     1    32    33    1
     2    28    33    1
     3    28    29    1
     4    29    30    1
     5    30     1    1
     6     1     2   ar
     7     2     3    2
     8     2     4   ar
     9     4     5    1
    10     4     6   ar
    11     6     7   ar
    12     7     8   ar
    13     8     9   ar
    14     9    10   ar
    15    10    11   ar
    16    11    12    1
    17    11    13   ar
    18    13    17    1
    19    17    18   ar
    20    18    19   ar
    21    19    20   ar
    22    20    23    1
    23    23    24    1
    24    24    25    1
    25    24    26    2
    26    24    27    2
    27    20    21   ar
    28    21    22   ar
    29    13    14   ar
    30    14    15   ar
    31    15    16   ar
    32    30    31    1
    33    31    28    1
    34    16     1   ar
    35    16     6   ar
    36    15     9   ar
    37    22    17   ar
@<TRIPOS>MOLECULE
*****
 33 37 0 0 0
SMALL
GASTEIGER

@<TRIPOS>ATOM
      1 N         139.5556  141.0080  161.0341 N.ar    1  UNL1       -0.2815
      2 C         139.0076  140.6747  159.6781 C.ar    1  UNL1        0.3316
      3 O         137.9215  139.6823  159.3856 O.2     1  UNL1       -0.2463
      4 N         139.7364  141.5081  158.6661 N.ar    1  UNL1       -0.2765
      5 C         139.5072  141.4954  157.1837 C.3     1  UNL1        0.1352
      6 C         140.7348  142.3564  159.3965 C.ar    1  UNL1        0.0989
      7 C         141.7313  143.3703  158.9181 C.ar    1  UNL1        0.1175
      8 N         142.6159  144.0752  159.9032 N.ar    1  UNL1       -0.2422
      9 C         142.5041  143.7661  161.3668 C.ar    1  UNL1        0.0850
     10 C         143.3889  144.4710  162.3519 C.ar    1  UNL1        0.0488
     11 C         143.2771  144.1619  163.8154 C.ar    1  UNL1        0.1416
     12 F         144.1617  144.8668  164.8006 F       1  UNL1       -0.2041
     13 C         142.2806  143.1479  164.2939 C.ar    1  UNL1        0.0291
     14 C         141.3959  142.4431  163.3087 C.ar    1  UNL1        0.0053
     15 C         141.5077  142.7521  161.8452 C.ar    1  UNL1        0.0352
     16 C         140.6230  142.0473  160.8601 C.ar    1  UNL1        0.0826
     17 C         142.1688  142.8388  165.7574 C.ar    1  UNL1        0.0213
     18 C         140.8279  142.8655  166.4293 C.ar    1  UNL1        0.0029
     19 C         140.7161  142.5565  167.8928 C.ar    1  UNL1        0.0165
     20 C         141.9452  142.2206  168.6845 C.ar    1  UNL1        0.0828
     21 N         143.2860  142.1939  168.0126 N.ar    1  UNL1       -0.2464
     22 C         143.3978  142.5030  166.5490 C.ar    1  UNL1        0.0985
     23 C         141.8334  141.9116  170.1480 C.3     1  UNL1        0.1962
     24 S         140.8704  140.8636  170.6218 S.O2    1  UNL1       -0.0025
     25 C         139.9074  139.8156  171.0956 C.3     1  UNL1        0.1765
     26 O         140.0997  141.9102  171.3705 O.2     1  UNL1       -0.1726
     27 O         141.6411  139.8169  169.8731 O.2     1  UNL1       -0.1726
     28 C         138.4887  139.5579  164.1763 C.3     1  UNL1        0.1191
     29 C         138.0254  140.7025  163.3248 C.3     1  UNL1        0.0524
     30 C         139.1136  140.4073  162.3356 C.3     1  UNL1        0.0947
     31 C         139.5771  139.2626  163.1871 C.3     1  UNL1        0.0524
     32 C         138.7519  139.3229  166.7503 C.3     1  UNL1        0.1740
     33 O         138.0468  138.9572  165.4778 O.3     1  UNL1       -0.3534
@<TRIPOS>BOND
     1    32    33    1
     2    28    33    1
     3    28    29    1
     4    29    30    1
     5    30     1    1
     6     1     2   ar
     7     2     3    2
     8     2     4   ar
     9     4     5    1
    10     4     6   ar
    11     6     7   ar
    12     7     8   ar
    13     8     9   ar
    14     9    10   ar
    15    10    11   ar
    16    11    12    1
    17    11    13   ar
    18    13    17    1
    19    17    18   ar
    20    18    19   ar
    21    19    20   ar
    22    20    23    1
    23    23    24    1
    24    24    25    1
    25    24    26    2
    26    24    27    2
    27    20    21   ar
    28    21    22   ar
    29    13    14   ar
    30    14    15   ar
    31    15    16   ar
    32    30    31    1
    33    31    28    1
    34    16     1   ar
    35    16     6   ar
    36    15     9   ar
    37    22    17   ar
@<TRIPOS>MOLECULE
*****
 33 37 0 0 0
SMALL
GASTEIGER

@<TRIPOS>ATOM
      1 N         142.8367  139.7040  166.0331 N.ar    1  UNL1       -0.2815
      2 C         143.1815  138.8447  167.2132 C.ar    1  UNL1        0.3316
      3 O         144.0690  137.6356  167.1942 O.2     1  UNL1       -0.2463
      4 N         142.4828  139.4068  168.4156 N.ar    1  UNL1       -0.2765
      5 C         142.5490  138.8584  169.8102 C.3     1  UNL1        0.1352
      6 C         141.7063  140.6135  167.9787 C.ar    1  UNL1        0.0989
      7 C         140.8283  141.5687  168.7314 C.ar    1  UNL1        0.1175
      8 N         140.1691  142.7076  168.0116 N.ar    1  UNL1       -0.2422
      9 C         140.3878  142.8914  166.5391 C.ar    1  UNL1        0.0850
     10 C         139.7285  144.0304  165.8193 C.ar    1  UNL1        0.0488
     11 C         139.9473  144.2141  164.3467 C.ar    1  UNL1        0.1416
     12 F         139.2881  145.3531  163.6269 F       1  UNL1       -0.2041
     13 C         140.8253  143.2588  163.5940 C.ar    1  UNL1        0.0291
     14 C         141.4846  142.1199  164.3138 C.ar    1  UNL1        0.0053
     15 C         141.2658  141.9362  165.7863 C.ar    1  UNL1        0.0352
     16 C         141.9250  140.7972  166.5062 C.ar    1  UNL1        0.0826
     17 C         141.0441  143.4426  162.1214 C.ar    1  UNL1        0.0213
     18 C         139.8816  143.3727  161.1760 C.ar    1  UNL1        0.0029
     19 C         140.1003  143.5564  159.7035 C.ar    1  UNL1        0.0165
     20 C         141.4816  143.8100  159.1764 C.ar    1  UNL1        0.0828
     21 N         142.6440  143.8799  160.1218 N.ar    1  UNL1       -0.2464
     22 C         142.4253  143.6962  161.5943 C.ar    1  UNL1        0.0985
     23 C         141.7004  143.9938  157.7038 C.3     1  UNL1        0.1962
     24 S         141.1890  145.2257  157.0176 S.O2    1  UNL1       -0.0025
     25 C         140.6775  146.4576  156.3313 C.3     1  UNL1        0.1765
     26 O         142.2511  146.0424  157.6920 O.2     1  UNL1       -0.1726
     27 O         140.1268  144.4090  156.3431 O.2     1  UNL1       -0.1726
     28 C         144.0012  139.2240  162.6378 C.3     1  UNL1        0.1191
     29 C         142.8518  138.7030  163.4486 C.3     1  UNL1        0.0524
     30 C         143.3190  139.5052  164.6267 C.3     1  UNL1        0.0947
     31 C         144.4686  140.0263  163.8159 C.3     1  UNL1        0.0524
     32 C         143.9021  139.8429  160.1165 C.3     1  UNL1        0.1740
     33 O         144.4835  139.0251  161.2314 O.3     1  UNL1       -0.3534
@<TRIPOS>BOND
     1    32    33    1
     2    28    33    1
     3    28    29    1
     4    29    30    1
     5    30     1    1
     6     1     2   ar
     7     2     3    2
     8     2     4   ar
     9     4     5    1
    10     4     6   ar
    11     6     7   ar
    12     7     8   ar
    13     8     9   ar
    14     9    10   ar
    15    10    11   ar
    16    11    12    1
    17    11    13   ar
    18    13    17    1
    19    17    18   ar
    20    18    19   ar
    21    19    20   ar
    22    20    23    1
    23    23    24    1
    24    24    25    1
    25    24    26    2
    26    24    27    2
    27    20    21   ar
    28    21    22   ar
    29    13    14   ar
    30    14    15   ar
    31    15    16   ar
    32    30    31    1
    33    31    28    1
    34    16     1   ar
    35    16     6   ar
    36    15     9   ar
    37    22    17   ar
@<TRIPOS>MOLECULE
*****
 33 37 0 0 0
SMALL
GASTEIGER

@<TRIPOS>ATOM
      1 N         141.0699  143.8055  160.4288 N.ar    1  UNL1       -0.2815
      2 C         141.0447  144.6602  159.1964 C.ar    1  UNL1        0.3316
      3 O         141.8897  145.8745  158.9482 O.2     1  UNL1       -0.2463
      4 N         140.0262  144.0875  158.2559 N.ar    1  UNL1       -0.2765
      5 C         139.6738  144.6285  156.9020 C.3     1  UNL1        0.1352
      6 C         139.4218  142.8788  158.9070 C.ar    1  UNL1        0.0989
      7 C         138.3675  141.9145  158.4505 C.ar    1  UNL1        0.1175
      8 N         137.9583  140.7758  159.3370 N.ar    1  UNL1       -0.2422
      9 C         138.6034  140.6015  160.6799 C.ar    1  UNL1        0.0850
     10 C         138.1941  139.4627  161.5664 C.ar    1  UNL1        0.0488
     11 C         138.8392  139.2884  162.9094 C.ar    1  UNL1        0.1416
     12 F         138.4299  138.1497  163.7958 F       1  UNL1       -0.2041
     13 C         139.8935  140.2528  163.3658 C.ar    1  UNL1        0.0291
     14 C         140.3027  141.3915  162.4793 C.ar    1  UNL1        0.0053
     15 C         139.6577  141.5658  161.1364 C.ar    1  UNL1        0.0352
     16 C         140.0669  142.7045  160.2499 C.ar    1  UNL1        0.0826
     17 C         140.5386  140.0785  164.7088 C.ar    1  UNL1        0.0213
     18 C         141.7510  139.2068  164.8509 C.ar    1  UNL1        0.0029
     19 C         142.3961  139.0325  166.1939 C.ar    1  UNL1        0.0165
     20 C         141.8287  139.7298  167.3946 C.ar    1  UNL1        0.0828
     21 N         140.6163  140.6015  167.2524 N.ar    1  UNL1       -0.2464
     22 C         139.9712  140.7758  165.9095 C.ar    1  UNL1        0.0985
     23 C         142.4738  139.5555  168.7376 C.3     1  UNL1        0.1962
     24 S         142.0246  140.3912  169.8995 S.O2    1  UNL1       -0.0025
     25 C         141.5755  141.2268  171.0614 C.3     1  UNL1        0.1765
     26 O         141.0001  139.3532  170.2500 O.2     1  UNL1       -0.1726
     27 O         143.0492  141.4291  169.5490 O.2     1  UNL1       -0.1726
     28 C         143.1814  144.3110  163.3271 C.3     1  UNL1        0.1191
     29 C         141.7964  144.7347  162.9369 C.3     1  UNL1        0.0524
     30 C         141.9445  144.0149  161.6293 C.3     1  UNL1        0.0947
     31 C         143.3296  143.5911  162.0194 C.3     1  UNL1        0.0524
     32 C         144.4025  143.3613  165.4145 C.3     1  UNL1        0.1740
     33 O         144.0560  144.5204  164.5276 O.3     1  UNL1       -0.3534
@<TRIPOS>BOND
     1    32    33    1
     2    28    33    1
     3    28    29    1
     4    29    30    1
     5    30     1    1
     6     1     2   ar
     7     2     3    2
     8     2     4   ar
     9     4     5    1
    10     4     6   ar
    11     6     7   ar
    12     7     8   ar
    13     8     9   ar
    14     9    10   ar
    15    10    11   ar
    16    11    12    1
    17    11    13   ar
    18    13    17    1
    19    17    18   ar
    20    18    19   ar
    21    19    20   ar
    22    20    23    1
    23    23    24    1
    24    24    25    1
    25    24    26    2
    26    24    27    2
    27    20    21   ar
    28    21    22   ar
    29    13    14   ar
    30    14    15   ar
    31    15    16   ar
    32    30    31    1
    33    31    28    1
    34    16     1   ar
    35    16     6   ar
    36    15     9   ar
    37    22    17   ar
@<TRIPOS>MOLECULE
*****
 33 37 0 0 0
SMALL
GASTEIGER

@<TRIPOS>ATOM
      1 N         141.8694  141.6054  160.6994 N.ar    1  UNL1       -0.2815
      2 C         141.9806  141.9835  159.2521 C.ar    1  UNL1        0.3316
      3 O         142.7978  143.1116  158.6957 O.2     1  UNL1       -0.2463
      4 N         141.1310  141.0353  158.4588 N.ar    1  UNL1       -0.2765
      5 C         140.9495  141.0488  156.9699 C.3     1  UNL1        0.1352
      6 C         140.4949  140.0712  159.4159 C.ar    1  UNL1        0.0989
      7 C         139.5590  138.9181  159.2053 C.ar    1  UNL1        0.1175
      8 N         139.0795  138.1173  160.3795 N.ar    1  UNL1       -0.2422
      9 C         139.5359  138.4697  161.7642 C.ar    1  UNL1        0.0850
     10 C         139.0563  137.6688  162.9385 C.ar    1  UNL1        0.0488
     11 C         139.5127  138.0212  164.3232 C.ar    1  UNL1        0.1416
     12 F         139.0332  137.2204  165.4974 F       1  UNL1       -0.2041
     13 C         140.4486  139.1744  164.5338 C.ar    1  UNL1        0.0291
     14 C         140.9281  139.9752  163.3596 C.ar    1  UNL1        0.0053
     15 C         140.4717  139.6228  161.9748 C.ar    1  UNL1        0.0352
     16 C         140.9512  140.4236  160.8006 C.ar    1  UNL1        0.0826
     17 C         140.9050  139.5267  165.9186 C.ar    1  UNL1        0.0213
     18 C         142.2440  139.0607  166.4082 C.ar    1  UNL1        0.0029
     19 C         142.7004  139.4130  167.7930 C.ar    1  UNL1        0.0165
     20 C         141.8177  140.2314  168.6881 C.ar    1  UNL1        0.0828
     21 N         140.4787  140.6974  168.1984 N.ar    1  UNL1       -0.2464
     22 C         140.0223  140.3451  166.8136 C.ar    1  UNL1        0.0985
     23 C         142.2741  140.5838  170.0729 C.3     1  UNL1        0.1962
     24 S         142.5744  142.0111  170.4231 S.O2    1  UNL1       -0.0025
     25 C         142.8748  143.4383  170.7733 C.3     1  UNL1        0.1765
     26 O         141.6355  141.9225  171.5895 O.2     1  UNL1       -0.1726
     27 O         143.5133  142.0997  169.2567 O.2     1  UNL1       -0.1726
     28 C         143.5268  143.2561  163.4639 C.3     1  UNL1        0.1191
     29 C         143.8438  142.0824  162.5853 C.3     1  UNL1        0.0524
     30 C         142.5560  142.2891  161.8445 C.3     1  UNL1        0.0947
     31 C         142.2390  143.4628  162.7232 C.3     1  UNL1        0.0524
     32 C         144.2666  143.2786  165.9544 C.3     1  UNL1        0.1740
     33 O         144.2134  143.9398  164.6090 O.3     1  UNL1       -0.3534
@<TRIPOS>BOND
     1    32    33    1
     2    28    33    1
     3    28    29    1
     4    29    30    1
     5    30     1    1
     6     1     2   ar
     7     2     3    2
     8     2     4   ar
     9     4     5    1
    10     4     6   ar
    11     6     7   ar
    12     7     8   ar
    13     8     9   ar
    14     9    10   ar
    15    10    11   ar
    16    11    12    1
    17    11    13   ar
    18    13    17    1
    19    17    18   ar
    20    18    19   ar
    21    19    20   ar
    22    20    23    1
    23    23    24    1
    24    24    25    1
    25    24    26    2
    26    24    27    2
    27    20    21   ar
    28    21    22   ar
    29    13    14   ar
    30    14    15   ar
    31    15    16   ar
    32    30    31    1
    33    31    28    1
    34    16     1   ar
    35    16     6   ar
    36    15     9   ar
    37    22    17   ar
@<TRIPOS>MOLECULE
*****
 33 37 0 0 0
SMALL
GASTEIGER

@<TRIPOS>ATOM
      1 N         140.9271  141.5388  166.5508 N.ar    1  UNL1       -0.2815
      2 C         140.7190  141.7964  168.0138 C.ar    1  UNL1        0.3316
      3 O         141.4049  142.8518  168.8296 O.2     1  UNL1       -0.2463
      4 N         139.7045  140.8131  168.5177 N.ar    1  UNL1       -0.2765
      5 C         139.1978  140.7127  169.9260 C.3     1  UNL1        0.1352
      6 C         139.2856  139.9479  167.3662 C.ar    1  UNL1        0.0989
      7 C         138.3138  138.8096  167.2676 C.ar    1  UNL1        0.1175
      8 N         138.0976  138.1198  165.9533 N.ar    1  UNL1       -0.2422
      9 C         138.8533  138.5683  164.7377 C.ar    1  UNL1        0.0850
     10 C         138.6370  137.8785  163.4233 C.ar    1  UNL1        0.0488
     11 C         139.3926  138.3270  162.2076 C.ar    1  UNL1        0.1416
     12 F         139.1764  137.6373  160.8933 F       1  UNL1       -0.2041
     13 C         140.3645  139.4654  162.3063 C.ar    1  UNL1        0.0291
     14 C         140.5807  140.1552  163.6206 C.ar    1  UNL1        0.0053
     15 C         139.8251  139.7066  164.8363 C.ar    1  UNL1        0.0352
     16 C         140.0413  140.3964  166.1506 C.ar    1  UNL1        0.0826
     17 C         141.1201  139.9139  161.0907 C.ar    1  UNL1        0.0213
     18 C         140.4008  140.6159  159.9771 C.ar    1  UNL1        0.0029
     19 C         141.1564  141.0645  158.7615 C.ar    1  UNL1        0.0165
     20 C         142.6314  140.8110  158.6593 C.ar    1  UNL1        0.0828
     21 N         143.3506  140.1090  159.7728 N.ar    1  UNL1       -0.2464
     22 C         142.5950  139.6605  160.9885 C.ar    1  UNL1        0.0985
     23 C         143.3870  141.2595  157.4437 C.3     1  UNL1        0.1962
     24 S         144.7359  141.8986  157.5925 S.O2    1  UNL1       -0.0025
     25 C         146.0848  142.5376  157.7413 C.3     1  UNL1        0.1765
     26 O         144.0893  143.1359  158.1410 O.2     1  UNL1       -0.1726
     27 O         145.3826  140.6613  157.0440 O.2     1  UNL1       -0.1726
     28 C         143.1737  143.3561  164.3681 C.3     1  UNL1        0.1191
     29 C         143.3174  142.2007  165.3138 C.3     1  UNL1        0.0524
     30 C         141.8577  142.2916  165.6467 C.3     1  UNL1        0.0947
     31 C         141.7140  143.4470  164.7009 C.3     1  UNL1        0.0524
     32 C         144.4791  143.5367  162.1290 C.3     1  UNL1        0.1740
     33 O         144.1043  144.1089  163.4640 O.3     1  UNL1       -0.3534
@<TRIPOS>BOND
     1    32    33    1
     2    28    33    1
     3    28    29    1
     4    29    30    1
     5    30     1    1
     6     1     2   ar
     7     2     3    2
     8     2     4   ar
     9     4     5    1
    10     4     6   ar
    11     6     7   ar
    12     7     8   ar
    13     8     9   ar
    14     9    10   ar
    15    10    11   ar
    16    11    12    1
    17    11    13   ar
    18    13    17    1
    19    17    18   ar
    20    18    19   ar
    21    19    20   ar
    22    20    23    1
    23    23    24    1
    24    24    25    1
    25    24    26    2
    26    24    27    2
    27    20    21   ar
    28    21    22   ar
    29    13    14   ar
    30    14    15   ar
    31    15    16   ar
    32    30    31    1
    33    31    28    1
    34    16     1   ar
    35    16     6   ar
    36    15     9   ar
    37    22    17   ar
@<TRIPOS>MOLECULE
*****
 33 37 0 0 0
SMALL
GASTEIGER

@<TRIPOS>ATOM
      1 N         139.7933  140.4099  159.4823 N.ar    1  UNL1       -0.2815
      2 C         139.3462  140.1393  158.0763 C.ar    1  UNL1        0.3316
      3 O         139.0946  138.7880  157.4758 O.2     1  UNL1       -0.2463
      4 N         139.1951  141.4572  157.3763 N.ar    1  UNL1       -0.2765
      5 C         138.7657  141.6553  155.9528 C.3     1  UNL1        0.1352
      6 C         139.5487  142.5424  158.3496 C.ar    1  UNL1        0.0989
      7 C         139.5818  144.0363  158.2189 C.ar    1  UNL1        0.1175
      8 N         139.9846  144.8829  159.3897 N.ar    1  UNL1       -0.2422
      9 C         140.3543  144.2355  160.6914 C.ar    1  UNL1        0.0850
     10 C         140.7571  145.0822  161.8623 C.ar    1  UNL1        0.0488
     11 C         141.1268  144.4349  163.1640 C.ar    1  UNL1        0.1416
     12 F         141.5296  145.2815  164.3349 F       1  UNL1       -0.2041
     13 C         141.0937  142.9409  163.2947 C.ar    1  UNL1        0.0291
     14 C         140.6909  142.0943  162.1238 C.ar    1  UNL1        0.0053
     15 C         140.3212  142.7417  160.8222 C.ar    1  UNL1        0.0352
     16 C         139.9184  141.8951  159.6513 C.ar    1  UNL1        0.0826
     17 C         141.4634  142.2936  164.5963 C.ar    1  UNL1        0.0213
     18 C         140.6315  142.5407  165.8198 C.ar    1  UNL1        0.0029
     19 C         141.0012  141.8934  167.1215 C.ar    1  UNL1        0.0165
     20 C         142.2028  140.9990  167.1996 C.ar    1  UNL1        0.0828
     21 N         143.0347  140.7519  165.9762 N.ar    1  UNL1       -0.2464
     22 C         142.6650  141.3992  164.6746 C.ar    1  UNL1        0.0985
     23 C         142.5726  140.3516  168.5013 C.3     1  UNL1        0.1962
     24 S         142.2113  141.0142  169.7977 S.O2    1  UNL1       -0.0025
     25 C         141.8501  141.6768  171.0940 C.3     1  UNL1        0.1765
     26 O         143.3455  141.9797  169.6203 O.2     1  UNL1       -0.1726
     27 O         141.0771  140.0488  169.9750 O.2     1  UNL1       -0.1726
     28 C         140.4545  137.9155  162.0230 C.3     1  UNL1        0.1191
     29 C         139.2327  138.6388  161.5393 C.3     1  UNL1        0.0524
     30 C         140.0671  139.3767  160.5347 C.3     1  UNL1        0.0947
     31 C         141.2891  138.6534  161.0185 C.3     1  UNL1        0.0524
     32 C         141.1159  137.3073  164.4608 C.3     1  UNL1        0.1740
     33 O         140.7284  136.8823  163.0754 O.3     1  UNL1       -0.3534
@<TRIPOS>BOND
     1    32    33    1
     2    28    33    1
     3    28    29    1
     4    29    30    1
     5    30     1    1
     6     1     2   ar
     7     2     3    2
     8     2     4   ar
     9     4     5    1
    10     4     6   ar
    11     6     7   ar
    12     7     8   ar
    13     8     9   ar
    14     9    10   ar
    15    10    11   ar
    16    11    12    1
    17    11    13   ar
    18    13    17    1
    19    17    18   ar
    20    18    19   ar
    21    19    20   ar
    22    20    23    1
    23    23    24    1
    24    24    25    1
    25    24    26    2
    26    24    27    2
    27    20    21   ar
    28    21    22   ar
    29    13    14   ar
    30    14    15   ar
    31    15    16   ar
    32    30    31    1
    33    31    28    1
    34    16     1   ar
    35    16     6   ar
    36    15     9   ar
    37    22    17   ar
