@<TRIPOS>MOLECULE
*****
 29 33 0 0 0
SMALL
GASTEIGER

@<TRIPOS>ATOM
      1 C         138.8933  138.3825  162.1717 C.3     1  UNL1        0.0294
      2 C         137.6863  139.2565  162.0009 C.3     1  UNL1        0.0666
      3 S         137.8334  140.7492  162.0126 S.3     1  UNL1       -0.0756
      4 C         140.7231  142.3627  164.0406 C.ar    1  UNL1        0.2029
      5 N         139.5902  142.4650  165.0185 N.ar    1  UNL1       -0.1250
      6 N         138.3699  141.8730  164.3779 N.ar    1  UNL1       -0.1220
      7 C         138.7485  141.4049  163.0040 C.ar    1  UNL1        0.1933
      8 N         140.2028  141.7075  162.7956 N.ar    1  UNL1       -0.2860
      9 C         140.9974  141.4075  161.5592 C.3     1  UNL1        0.1341
     10 C         141.8421  145.3842  163.5238 C.3     1  UNL1        0.0556
     11 C         142.6435  144.2218  164.0302 C.ar    1  UNL1        0.1001
     12 N         144.1001  144.2442  164.3881 N.ar    1  UNL1       -0.2085
     13 C         144.4858  142.8691  164.8467 C.ar    1  UNL1        0.2849
     14 O         143.2678  141.9969  164.7724 O.2     1  UNL1       -0.4283
     15 C         142.1292  142.8329  164.2678 C.ar    1  UNL1        0.1964
     16 C         139.0782  137.5979  163.4368 C.3     1  UNL1        0.0730
     17 N         139.4634  138.2999  164.7051 N.3     1  UNL1       -0.2726
     18 C         140.8924  138.6891  164.9427 C.3     1  UNL1        0.0724
     19 C         141.2776  139.3911  166.2111 C.3     1  UNL1        0.0214
     20 C         140.2338  139.7038  167.2420 C.3     1  UNL1        0.0216
     21 C         139.1900  140.0166  168.2728 C.3     1  UNL1        0.0058
     22 C         138.8048  139.3146  167.0044 C.3     1  UNL1        0.0201
     23 C         138.4196  138.6126  165.7359 C.3     1  UNL1        0.0724
     24 C         141.2812  140.3338  168.1114 C.ar    1  UNL1       -0.0227
     25 C         141.7618  141.7243  167.8189 C.ar    1  UNL1       -0.0043
     26 C         142.8093  142.3543  168.6884 C.ar    1  UNL1       -0.0003
     27 C         143.3760  141.5938  169.8505 C.ar    1  UNL1       -0.0000
     28 C         142.8954  140.2034  170.1430 C.ar    1  UNL1       -0.0003
     29 C         141.8480  139.5734  169.2736 C.ar    1  UNL1       -0.0043
@<TRIPOS>BOND
     1    10    11    1
     2    11    12   ar
     3    12    13   ar
     4    13    14   ar
     5    14    15   ar
     6    15     4    1
     7     4     5   ar
     8     5     6   ar
     9     6     7   ar
    10     7     3    1
    11     3     2    1
    12     2     1    1
    13     1    16    1
    14    16    17    1
    15    17    18    1
    16    18    19    1
    17    19    20    1
    18    20    24    1
    19    24    25   ar
    20    25    26   ar
    21    26    27   ar
    22    27    28   ar
    23    28    29   ar
    24    20    21    1
    25    21    22    1
    26    22    23    1
    27     7     8   ar
    28     8     9    1
    29    15    11   ar
    30     8     4   ar
    31    23    17    1
    32    22    20    1
    33    29    24   ar
@<TRIPOS>MOLECULE
*****
 29 33 0 0 0
SMALL
GASTEIGER

@<TRIPOS>ATOM
      1 C         140.4387  145.5945  161.1087 C.3     1  UNL1        0.0294
      2 C         140.9350  144.3025  160.5306 C.3     1  UNL1        0.0666
      3 S         139.9612  143.2234  160.1602 S.3     1  UNL1       -0.0756
      4 C         138.4986  141.0904  163.0544 C.ar    1  UNL1        0.2029
      5 N         137.3078  141.9203  162.6755 N.ar    1  UNL1       -0.1250
      6 N         137.7108  142.8203  161.5452 N.ar    1  UNL1       -0.1220
      7 C         139.1505  142.5467  161.2255 C.ar    1  UNL1        0.1933
      8 N         139.6374  141.4776  162.1583 N.ar    1  UNL1       -0.2860
      9 C         141.0203  140.8975  162.1895 C.3     1  UNL1        0.1341
     10 C         138.8166  137.8716  162.6219 C.3     1  UNL1        0.0556
     11 C         138.6888  138.5757  163.9402 C.ar    1  UNL1        0.1001
     12 N         138.6848  137.9238  165.2912 N.ar    1  UNL1       -0.2085
     13 C         138.5362  139.0006  166.3249 C.ar    1  UNL1        0.2849
     14 O         138.4483  140.3178  165.6128 O.2     1  UNL1       -0.4283
     15 C         138.5427  140.0552  164.1390 C.ar    1  UNL1        0.1964
     16 C         140.3485  145.7650  162.5963 C.3     1  UNL1        0.0730
     17 N         141.0999  144.8372  163.5044 N.3     1  UNL1       -0.2726
     18 C         140.3513  143.9164  164.4219 C.3     1  UNL1        0.0724
     19 C         141.1027  142.9887  165.3300 C.3     1  UNL1        0.0214
     20 C         142.6027  142.9818  165.3207 C.3     1  UNL1        0.0216
     21 C         144.1026  142.9749  165.3114 C.3     1  UNL1        0.0058
     22 C         143.3513  143.9026  164.4032 C.3     1  UNL1        0.0201
     23 C         142.5998  144.8304  163.4951 C.3     1  UNL1        0.0724
     24 C         142.6044  141.9145  166.3747 C.ar    1  UNL1       -0.0227
     25 C         142.2594  140.5008  166.0111 C.ar    1  UNL1       -0.0043
     26 C         142.2611  139.4335  167.0651 C.ar    1  UNL1       -0.0003
     27 C         142.6077  139.7800  168.4828 C.ar    1  UNL1       -0.0000
     28 C         142.9526  141.1938  168.8464 C.ar    1  UNL1       -0.0003
     29 C         142.9509  142.2611  167.7924 C.ar    1  UNL1       -0.0043
@<TRIPOS>BOND
     1    10    11    1
     2    11    12   ar
     3    12    13   ar
     4    13    14   ar
     5    14    15   ar
     6    15     4    1
     7     4     5   ar
     8     5     6   ar
     9     6     7   ar
    10     7     3    1
    11     3     2    1
    12     2     1    1
    13     1    16    1
    14    16    17    1
    15    17    18    1
    16    18    19    1
    17    19    20    1
    18    20    24    1
    19    24    25   ar
    20    25    26   ar
    21    26    27   ar
    22    27    28   ar
    23    28    29   ar
    24    20    21    1
    25    21    22    1
    26    22    23    1
    27     7     8   ar
    28     8     9    1
    29    15    11   ar
    30     8     4   ar
    31    23    17    1
    32    22    20    1
    33    29    24   ar
@<TRIPOS>MOLECULE
*****
 29 33 0 0 0
SMALL
GASTEIGER

@<TRIPOS>ATOM
      1 C         141.0203  145.0258  162.1004 C.3     1  UNL1        0.0294
      2 C         140.9336  144.8105  160.6185 C.3     1  UNL1        0.0666
      3 S         140.0097  143.7664  160.0651 S.3     1  UNL1       -0.0756
      4 C         138.5882  141.1292  162.5330 C.ar    1  UNL1        0.2029
      5 N         137.3889  142.0052  162.3224 N.ar    1  UNL1       -0.1250
      6 N         137.7754  143.0997  161.3723 N.ar    1  UNL1       -0.1220
      7 C         139.2136  142.9002  160.9957 C.ar    1  UNL1        0.1933
      8 N         139.7159  141.6824  161.7131 N.ar    1  UNL1       -0.2860
      9 C         141.1025  141.1169  161.6259 C.3     1  UNL1        0.1341
     10 C         139.0455  138.0591  161.5259 C.3     1  UNL1        0.0556
     11 C         138.8593  138.5024  162.9467 C.ar    1  UNL1        0.1001
     12 N         138.8506  137.6124  164.1541 N.ar    1  UNL1       -0.2085
     13 C         138.6351  138.4735  165.3632 C.ar    1  UNL1        0.2849
     14 O         138.5105  139.8957  164.9031 O.2     1  UNL1       -0.4283
     15 C         138.6491  139.9136  163.4097 C.ar    1  UNL1        0.1964
     16 C         142.2301  144.5617  162.8562 C.3     1  UNL1        0.0730
     17 N         142.0681  143.8433  164.1629 N.3     1  UNL1       -0.2726
     18 C         140.7146  143.7454  164.8022 C.3     1  UNL1        0.0724
     19 C         140.5526  143.0271  166.1090 C.3     1  UNL1        0.0214
     20 C         141.7440  142.4066  166.7766 C.3     1  UNL1        0.0216
     21 C         142.9354  141.7862  167.4440 C.3     1  UNL1        0.0058
     22 C         143.0974  142.5045  166.1373 C.3     1  UNL1        0.0201
     23 C         143.2594  143.2229  164.8304 C.3     1  UNL1        0.0724
     24 C         140.8691  141.9354  167.9001 C.ar    1  UNL1       -0.0227
     25 C         140.6188  142.8266  169.0803 C.ar    1  UNL1       -0.0043
     26 C         139.7439  142.3553  170.2039 C.ar    1  UNL1       -0.0003
     27 C         139.1192  140.9928  170.1472 C.ar    1  UNL1       -0.0000
     28 C         139.3695  140.1015  168.9670 C.ar    1  UNL1       -0.0003
     29 C         140.2444  140.5727  167.8435 C.ar    1  UNL1       -0.0043
@<TRIPOS>BOND
     1    10    11    1
     2    11    12   ar
     3    12    13   ar
     4    13    14   ar
     5    14    15   ar
     6    15     4    1
     7     4     5   ar
     8     5     6   ar
     9     6     7   ar
    10     7     3    1
    11     3     2    1
    12     2     1    1
    13     1    16    1
    14    16    17    1
    15    17    18    1
    16    18    19    1
    17    19    20    1
    18    20    24    1
    19    24    25   ar
    20    25    26   ar
    21    26    27   ar
    22    27    28   ar
    23    28    29   ar
    24    20    21    1
    25    21    22    1
    26    22    23    1
    27     7     8   ar
    28     8     9    1
    29    15    11   ar
    30     8     4   ar
    31    23    17    1
    32    22    20    1
    33    29    24   ar
@<TRIPOS>MOLECULE
*****
 29 33 0 0 0
SMALL
GASTEIGER

@<TRIPOS>ATOM
      1 C         139.2871  137.6567  163.1066 C.3     1  UNL1        0.0294
      2 C         140.4487  137.8978  162.1888 C.3     1  UNL1        0.0666
      3 S         141.8513  137.7670  162.7040 S.3     1  UNL1       -0.0756
      4 C         143.3171  141.2288  163.6699 C.ar    1  UNL1        0.2029
      5 N         143.9252  140.3521  164.7244 N.ar    1  UNL1       -0.1250
      6 N         143.4501  138.9486  164.4909 N.ar    1  UNL1       -0.1220
      7 C         142.5484  138.9579  163.2922 C.ar    1  UNL1        0.1933
      8 N         142.4663  140.3671  162.7848 N.ar    1  UNL1       -0.2860
      9 C         141.6726  140.8328  161.6003 C.3     1  UNL1        0.1341
     10 C         144.7636  142.7278  161.1581 C.3     1  UNL1        0.0556
     11 C         144.1886  143.3965  162.3714 C.ar    1  UNL1        0.1001
     12 N         144.1774  144.8717  162.6432 N.ar    1  UNL1       -0.2085
     13 C         143.5056  145.0943  163.9657 C.ar    1  UNL1        0.2849
     14 O         143.1016  143.7567  164.5113 O.2     1  UNL1       -0.4283
     15 C         143.5237  142.7075  163.5260 C.ar    1  UNL1        0.1964
     16 C         138.4536  138.8103  163.5805 C.3     1  UNL1        0.0730
     17 N         139.0516  139.8455  164.4864 N.3     1  UNL1       -0.2726
     18 C         139.7879  139.4242  165.7236 C.3     1  UNL1        0.0724
     19 C         140.3859  140.4593  166.6295 C.3     1  UNL1        0.0214
     20 C         140.2478  141.9158  166.2983 C.3     1  UNL1        0.0216
     21 C         140.1096  143.3722  165.9671 C.3     1  UNL1        0.0058
     22 C         139.5116  142.3371  165.0612 C.3     1  UNL1        0.0201
     23 C         138.9135  141.3019  164.1552 C.3     1  UNL1        0.0724
     24 C         141.0181  142.2703  167.5356 C.ar    1  UNL1       -0.0227
     25 C         140.3405  142.9991  168.6580 C.ar    1  UNL1       -0.0043
     26 C         141.1109  143.3535  169.8953 C.ar    1  UNL1       -0.0003
     27 C         142.5589  142.9792  170.0102 C.ar    1  UNL1       -0.0000
     28 C         143.2365  142.2503  168.8879 C.ar    1  UNL1       -0.0003
     29 C         142.4661  141.8959  167.6506 C.ar    1  UNL1       -0.0043
@<TRIPOS>BOND
     1    10    11    1
     2    11    12   ar
     3    12    13   ar
     4    13    14   ar
     5    14    15   ar
     6    15     4    1
     7     4     5   ar
     8     5     6   ar
     9     6     7   ar
    10     7     3    1
    11     3     2    1
    12     2     1    1
    13     1    16    1
    14    16    17    1
    15    17    18    1
    16    18    19    1
    17    19    20    1
    18    20    24    1
    19    24    25   ar
    20    25    26   ar
    21    26    27   ar
    22    27    28   ar
    23    28    29   ar
    24    20    21    1
    25    21    22    1
    26    22    23    1
    27     7     8   ar
    28     8     9    1
    29    15    11   ar
    30     8     4   ar
    31    23    17    1
    32    22    20    1
    33    29    24   ar
@<TRIPOS>MOLECULE
*****
 29 33 0 0 0
SMALL
GASTEIGER

@<TRIPOS>ATOM
      1 C         140.5110  137.6394  162.7414 C.3     1  UNL1        0.0294
      2 C         139.1246  138.0358  163.1543 C.3     1  UNL1        0.0666
      3 S         138.2346  138.7642  162.1912 S.3     1  UNL1       -0.0756
      4 C         138.5424  142.6329  162.1260 C.ar    1  UNL1        0.2029
      5 N         137.1822  142.4605  162.7345 N.ar    1  UNL1       -0.1250
      6 N         136.9014  140.9903  162.8330 N.ar    1  UNL1       -0.1220
      7 C         138.0879  140.2540  162.2854 C.ar    1  UNL1        0.1933
      8 N         139.1021  141.2692  161.8485 N.ar    1  UNL1       -0.2860
      9 C         140.4410  140.9727  161.2406 C.3     1  UNL1        0.1341
     10 C         139.5437  144.7937  164.3570 C.3     1  UNL1        0.0556
     11 C         139.6835  144.9327  162.8700 C.ar    1  UNL1        0.1001
     12 N         140.3080  146.0893  162.1474 N.ar    1  UNL1       -0.2085
     13 C         140.2337  145.8109  160.6753 C.ar    1  UNL1        0.2849
     14 O         139.5633  144.4822  160.4881 O.2     1  UNL1       -0.4283
     15 C         139.2232  143.9395  161.8445 C.ar    1  UNL1        0.1964
     16 C         141.6177  137.6175  163.7537 C.3     1  UNL1        0.0730
     17 N         141.8542  138.8101  164.6322 N.3     1  UNL1       -0.2726
     18 C         141.1119  138.9457  165.9286 C.3     1  UNL1        0.0724
     19 C         141.3484  140.1382  166.8071 C.3     1  UNL1        0.0214
     20 C         142.3272  141.1953  166.3892 C.3     1  UNL1        0.0216
     21 C         143.3060  142.2523  165.9714 C.3     1  UNL1        0.0058
     22 C         143.0696  141.0597  165.0929 C.3     1  UNL1        0.0201
     23 C         142.8330  139.8671  164.2144 C.3     1  UNL1        0.0724
     24 C         142.0352  141.9621  167.6449 C.ar    1  UNL1       -0.0227
     25 C         140.6951  142.6088  167.8342 C.ar    1  UNL1       -0.0043
     26 C         140.4031  143.3757  169.0900 C.ar    1  UNL1       -0.0003
     27 C         141.4512  143.4958  170.1562 C.ar    1  UNL1       -0.0000
     28 C         142.7913  142.8491  169.9669 C.ar    1  UNL1       -0.0003
     29 C         143.0833  142.0823  168.7112 C.ar    1  UNL1       -0.0043
@<TRIPOS>BOND
     1    10    11    1
     2    11    12   ar
     3    12    13   ar
     4    13    14   ar
     5    14    15   ar
     6    15     4    1
     7     4     5   ar
     8     5     6   ar
     9     6     7   ar
    10     7     3    1
    11     3     2    1
    12     2     1    1
    13     1    16    1
    14    16    17    1
    15    17    18    1
    16    18    19    1
    17    19    20    1
    18    20    24    1
    19    24    25   ar
    20    25    26   ar
    21    26    27   ar
    22    27    28   ar
    23    28    29   ar
    24    20    21    1
    25    21    22    1
    26    22    23    1
    27     7     8   ar
    28     8     9    1
    29    15    11   ar
    30     8     4   ar
    31    23    17    1
    32    22    20    1
    33    29    24   ar
@<TRIPOS>MOLECULE
*****
 29 33 0 0 0
SMALL
GASTEIGER

@<TRIPOS>ATOM
      1 C         138.9896  137.9889  162.1997 C.3     1  UNL1        0.0294
      2 C         137.7587  138.6481  161.6518 C.3     1  UNL1        0.0666
      3 S         137.7658  140.1175  161.3507 S.3     1  UNL1       -0.0756
      4 C         140.5347  142.4001  162.8301 C.ar    1  UNL1        0.2029
      5 N         139.4681  142.5220  163.8777 N.ar    1  UNL1       -0.1250
      6 N         138.3011  141.6818  163.4511 N.ar    1  UNL1       -0.1220
      7 C         138.6464  141.0406  162.1397 C.ar    1  UNL1        0.1933
      8 N         140.0268  141.4845  161.7560 N.ar    1  UNL1       -0.2860
      9 C         140.7691  141.0834  160.5158 C.3     1  UNL1        0.1341
     10 C         141.4537  144.9015  160.9466 C.3     1  UNL1        0.0556
     11 C         142.2964  144.2250  161.9869 C.ar    1  UNL1        0.1001
     12 N         143.7095  144.5795  162.3441 N.ar    1  UNL1       -0.2085
     13 C         144.1603  143.6488  163.4306 C.ar    1  UNL1        0.2849
     14 O         143.0259  142.7191  163.7449 O.2     1  UNL1       -0.4283
     15 C         141.8740  143.0752  162.8526 C.ar    1  UNL1        0.1964
     16 C         139.0402  137.5743  163.6404 C.3     1  UNL1        0.0730
     17 N         139.5271  138.5380  164.6816 N.3     1  UNL1       -0.2726
     18 C         138.6271  138.9375  165.8132 C.3     1  UNL1        0.0724
     19 C         139.1140  139.9013  166.8543 C.3     1  UNL1        0.0214
     20 C         140.5009  140.4657  166.7639 C.3     1  UNL1        0.0216
     21 C         141.8877  141.0299  166.6735 C.3     1  UNL1        0.0058
     22 C         141.4009  140.0662  165.6324 C.3     1  UNL1        0.0201
     23 C         140.9139  139.1023  164.5912 C.3     1  UNL1        0.0724
     24 C         140.2624  141.2528  168.0183 C.ar    1  UNL1       -0.0227
     25 C         140.7212  142.6780  168.1081 C.ar    1  UNL1       -0.0043
     26 C         140.4827  143.4651  169.3626 C.ar    1  UNL1       -0.0003
     27 C         139.7855  142.8269  170.5272 C.ar    1  UNL1       -0.0000
     28 C         139.3266  141.4017  170.4375 C.ar    1  UNL1       -0.0003
     29 C         139.5651  140.6146  169.1831 C.ar    1  UNL1       -0.0043
@<TRIPOS>BOND
     1    10    11    1
     2    11    12   ar
     3    12    13   ar
     4    13    14   ar
     5    14    15   ar
     6    15     4    1
     7     4     5   ar
     8     5     6   ar
     9     6     7   ar
    10     7     3    1
    11     3     2    1
    12     2     1    1
    13     1    16    1
    14    16    17    1
    15    17    18    1
    16    18    19    1
    17    19    20    1
    18    20    24    1
    19    24    25   ar
    20    25    26   ar
    21    26    27   ar
    22    27    28   ar
    23    28    29   ar
    24    20    21    1
    25    21    22    1
    26    22    23    1
    27     7     8   ar
    28     8     9    1
    29    15    11   ar
    30     8     4   ar
    31    23    17    1
    32    22    20    1
    33    29    24   ar
@<TRIPOS>MOLECULE
*****
 29 33 0 0 0
SMALL
GASTEIGER

@<TRIPOS>ATOM
      1 C         138.6110  138.1241  162.0286 C.3     1  UNL1        0.0294
      2 C         137.8017  139.3541  161.7421 C.3     1  UNL1        0.0666
      3 S         138.2467  140.3137  160.6786 S.3     1  UNL1       -0.0756
      4 C         140.4706  143.2390  161.9289 C.ar    1  UNL1        0.2029
      5 N         139.2921  143.9858  161.3779 N.ar    1  UNL1       -0.1250
      6 N         138.3156  142.9809  160.8424 N.ar    1  UNL1       -0.1220
      7 C         138.8905  141.6130  161.0626 C.ar    1  UNL1        0.1933
      8 N         140.2223  141.7726  161.7341 N.ar    1  UNL1       -0.2860
      9 C         141.1441  140.6608  162.1395 C.3     1  UNL1        0.1341
     10 C         141.0560  143.4584  165.1318 C.3     1  UNL1        0.0556
     11 C         141.9532  143.9520  164.0356 C.ar    1  UNL1        0.1001
     12 N         143.2770  144.6331  164.2192 N.ar    1  UNL1       -0.2085
     13 C         143.8259  144.9531  162.8605 C.ar    1  UNL1        0.2849
     14 O         142.8415  144.4699  161.8372 O.2     1  UNL1       -0.4283
     15 C         141.6841  143.8511  162.5634 C.ar    1  UNL1        0.1964
     16 C         138.7032  137.5965  163.4298 C.3     1  UNL1        0.0730
     17 N         139.5534  138.3038  164.4431 N.3     1  UNL1       -0.2726
     18 C         138.9795  139.4330  165.2466 C.3     1  UNL1        0.0724
     19 C         139.8297  140.1403  166.2599 C.3     1  UNL1        0.0214
     20 C         141.2538  139.7185  166.4698 C.3     1  UNL1        0.0216
     21 C         142.6779  139.2966  166.6795 C.3     1  UNL1        0.0058
     22 C         141.8277  138.5893  165.6662 C.3     1  UNL1        0.0201
     23 C         140.9774  137.8820  164.6529 C.3     1  UNL1        0.0724
     24 C         141.4134  140.7788  167.5187 C.ar    1  UNL1       -0.0227
     25 C         140.2096  141.3048  168.2426 C.ar    1  UNL1       -0.0043
     26 C         140.3692  142.3652  169.2916 C.ar    1  UNL1       -0.0003
     27 C         141.7326  142.8994  169.6166 C.ar    1  UNL1       -0.0000
     28 C         142.9365  142.3733  168.8927 C.ar    1  UNL1       -0.0003
     29 C         142.7769  141.3130  167.8438 C.ar    1  UNL1       -0.0043
@<TRIPOS>BOND
     1    10    11    1
     2    11    12   ar
     3    12    13   ar
     4    13    14   ar
     5    14    15   ar
     6    15     4    1
     7     4     5   ar
     8     5     6   ar
     9     6     7   ar
    10     7     3    1
    11     3     2    1
    12     2     1    1
    13     1    16    1
    14    16    17    1
    15    17    18    1
    16    18    19    1
    17    19    20    1
    18    20    24    1
    19    24    25   ar
    20    25    26   ar
    21    26    27   ar
    22    27    28   ar
    23    28    29   ar
    24    20    21    1
    25    21    22    1
    26    22    23    1
    27     7     8   ar
    28     8     9    1
    29    15    11   ar
    30     8     4   ar
    31    23    17    1
    32    22    20    1
    33    29    24   ar
@<TRIPOS>MOLECULE
*****
 29 33 0 0 0
SMALL
GASTEIGER

@<TRIPOS>ATOM
      1 C         143.9785  139.3226  162.4684 C.3     1  UNL1        0.0294
      2 C         143.2467  138.0648  162.1048 C.3     1  UNL1        0.0666
      3 S         141.7516  138.0094  162.2122 S.3     1  UNL1       -0.0756
      4 C         139.9399  140.6970  164.3477 C.ar    1  UNL1        0.2029
      5 N         139.9613  139.5371  165.2987 N.ar    1  UNL1       -0.1250
      6 N         140.6425  138.3891  164.6145 N.ar    1  UNL1       -0.1220
      7 C         141.0422  138.8395  163.2407 C.ar    1  UNL1        0.1933
      8 N         140.6080  140.2658  163.0758 N.ar    1  UNL1       -0.2860
      9 C         140.8069  141.1124  161.8536 C.3     1  UNL1        0.1341
     10 C         137.1608  141.8698  163.1028 C.3     1  UNL1        0.0556
     11 C         138.0761  142.5894  164.0485 C.ar    1  UNL1        0.1001
     12 N         137.8746  143.9744  164.5881 N.ar    1  UNL1       -0.2085
     13 C         139.0276  144.2912  165.4938 C.ar    1  UNL1        0.2849
     14 O         139.9416  143.1021  165.5140 O.2     1  UNL1       -0.4283
     15 C         139.3535  142.0503  164.6208 C.ar    1  UNL1        0.1964
     16 C         144.7452  139.3989  163.7555 C.3     1  UNL1        0.0730
     17 N         144.0255  139.6763  165.0419 N.3     1  UNL1       -0.2726
     18 C         143.4661  141.0423  165.3088 C.3     1  UNL1        0.0724
     19 C         142.7464  141.3198  166.5953 C.3     1  UNL1        0.0214
     20 C         142.5860  140.2312  167.6148 C.3     1  UNL1        0.0216
     21 C         142.4256  139.1428  168.6343 C.3     1  UNL1        0.0058
     22 C         143.1453  138.8653  167.3479 C.3     1  UNL1        0.0201
     23 C         143.8651  138.5878  166.0614 C.3     1  UNL1        0.0724
     24 C         141.8475  141.1800  168.5117 C.ar    1  UNL1       -0.0227
     25 C         142.5531  142.3732  169.0848 C.ar    1  UNL1       -0.0043
     26 C         141.8145  143.3221  169.9817 C.ar    1  UNL1       -0.0003
     27 C         140.3704  143.0777  170.3054 C.ar    1  UNL1       -0.0000
     28 C         139.6648  141.8845  169.7323 C.ar    1  UNL1       -0.0003
     29 C         140.4033  140.9357  168.8355 C.ar    1  UNL1       -0.0043
@<TRIPOS>BOND
     1    10    11    1
     2    11    12   ar
     3    12    13   ar
     4    13    14   ar
     5    14    15   ar
     6    15     4    1
     7     4     5   ar
     8     5     6   ar
     9     6     7   ar
    10     7     3    1
    11     3     2    1
    12     2     1    1
    13     1    16    1
    14    16    17    1
    15    17    18    1
    16    18    19    1
    17    19    20    1
    18    20    24    1
    19    24    25   ar
    20    25    26   ar
    21    26    27   ar
    22    27    28   ar
    23    28    29   ar
    24    20    21    1
    25    21    22    1
    26    22    23    1
    27     7     8   ar
    28     8     9    1
    29    15    11   ar
    30     8     4   ar
    31    23    17    1
    32    22    20    1
    33    29    24   ar
@<TRIPOS>MOLECULE
*****
 29 33 0 0 0
SMALL
GASTEIGER

@<TRIPOS>ATOM
      1 C         140.2787  144.9229  160.6682 C.3     1  UNL1        0.0294
      2 C         139.6736  145.8232  161.7041 C.3     1  UNL1        0.0666
      3 S         138.9312  145.2352  162.8674 S.3     1  UNL1       -0.0756
      4 C         138.2789  141.4549  163.4585 C.ar    1  UNL1        0.2029
      5 N         137.5379  141.6795  162.1737 N.ar    1  UNL1       -0.1250
      6 N         137.6921  143.1229  161.7959 N.ar    1  UNL1       -0.1220
      7 C         138.5283  143.7904  162.8472 C.ar    1  UNL1        0.1933
      8 N         138.8910  142.7596  163.8747 N.ar    1  UNL1       -0.2860
      9 C         139.7202  142.9924  165.1028 C.3     1  UNL1        0.1341
     10 C         139.2966  138.6181  162.2071 C.3     1  UNL1        0.0556
     11 C         138.8563  138.8502  163.6221 C.ar    1  UNL1        0.1001
     12 N         138.8065  137.8191  164.7103 N.ar    1  UNL1       -0.2085
     13 C         138.3079  138.4857  165.9581 C.ar    1  UNL1        0.2849
     14 O         138.0496  139.9289  165.6410 O.2     1  UNL1       -0.4283
     15 C         138.3885  140.1541  164.1973 C.ar    1  UNL1        0.1964
     16 C         141.7329  144.5630  160.7444 C.3     1  UNL1        0.0730
     17 N         142.2530  143.7873  161.9182 N.3     1  UNL1       -0.2726
     18 C         141.9441  142.3251  162.0472 C.3     1  UNL1        0.0724
     19 C         142.4642  141.5494  163.2210 C.3     1  UNL1        0.0214
     20 C         143.2934  142.2358  164.2657 C.3     1  UNL1        0.0216
     21 C         144.1224  142.9223  165.3104 C.3     1  UNL1        0.0058
     22 C         143.6023  143.6980  164.1366 C.3     1  UNL1        0.0201
     23 C         143.0821  144.4737  162.9628 C.3     1  UNL1        0.0724
     24 C         143.4153  140.9439  165.0179 C.ar    1  UNL1       -0.0227
     25 C         144.4154  139.9141  164.5827 C.ar    1  UNL1       -0.0043
     26 C         144.5373  138.6221  165.3349 C.ar    1  UNL1       -0.0003
     27 C         143.6592  138.3598  166.5223 C.ar    1  UNL1       -0.0000
     28 C         142.6591  139.3895  166.9576 C.ar    1  UNL1       -0.0003
     29 C         142.5371  140.6815  166.2054 C.ar    1  UNL1       -0.0043
@<TRIPOS>BOND
     1    10    11    1
     2    11    12   ar
     3    12    13   ar
     4    13    14   ar
     5    14    15   ar
     6    15     4    1
     7     4     5   ar
     8     5     6   ar
     9     6     7   ar
    10     7     3    1
    11     3     2    1
    12     2     1    1
    13     1    16    1
    14    16    17    1
    15    17    18    1
    16    18    19    1
    17    19    20    1
    18    20    24    1
    19    24    25   ar
    20    25    26   ar
    21    26    27   ar
    22    27    28   ar
    23    28    29   ar
    24    20    21    1
    25    21    22    1
    26    22    23    1
    27     7     8   ar
    28     8     9    1
    29    15    11   ar
    30     8     4   ar
    31    23    17    1
    32    22    20    1
    33    29    24   ar
