@<TRIPOS>MOLECULE
*****
 28 31 0 0 0
SMALL
GASTEIGER

@<TRIPOS>ATOM
      1 C         138.4734  139.4086  165.8629 C.3     1  UNL1        0.0391
      2 C         138.9283  140.5669  165.0253 C.3     1  UNL1        0.1611
      3 C         138.0692  139.8464  164.0289 C.3     1  UNL1        0.0391
      4 O         139.0847  141.4749  163.8417 O.3     1  UNL1       -0.3529
      5 C         139.9424  142.7012  163.9453 C.3     1  UNL1        0.1144
      6 C         140.8000  143.9274  164.0490 C.3     1  UNL1        0.0463
      7 C         140.9565  144.8354  162.8654 C.3     1  UNL1        0.0746
      8 N         140.2554  144.5172  161.5781 N.3     1  UNL1       -0.2722
      9 C         139.3978  143.2910  161.4744 C.3     1  UNL1        0.0746
     10 C         139.2413  142.3830  162.6580 C.3     1  UNL1        0.0463
     11 C         140.6436  143.0194  165.2326 C.3     1  UNL1        0.1254
     12 N         140.4870  142.1113  166.4163 N.am    1  UNL1       -0.2544
     13 C         139.6294  140.8851  166.3126 C.2     1  UNL1        0.2538
     14 O         139.4729  139.9770  167.4962 O.2     1  UNL1       -0.2720
     15 C         141.1882  142.4295  167.7036 C.ar    1  UNL1        0.0540
     16 C         140.4586  143.1540  168.7957 C.ar    1  UNL1        0.0149
     17 C         141.1598  143.4722  170.0830 C.ar    1  UNL1        0.0013
     18 C         142.5904  143.0659  170.2782 C.ar    1  UNL1        0.0001
     19 C         143.3200  142.3414  169.1860 C.ar    1  UNL1        0.0013
     20 C         142.6189  142.0232  167.8987 C.ar    1  UNL1        0.0149
     21 C         140.4119  145.4253  160.3945 C.3     1  UNL1        0.0768
     22 C         141.4595  145.1361  159.3606 C.3     1  UNL1        0.0437
     23 C         141.2083  145.4787  157.9220 C.ar    1  UNL1       -0.0208
     24 C         142.1532  144.9986  156.8606 C.ar    1  UNL1       -0.0042
     25 C         141.9019  145.3413  155.4221 C.ar    1  UNL1       -0.0003
     26 C         140.7058  146.1640  155.0449 C.ar    1  UNL1       -0.0000
     27 C         139.7609  146.6442  156.1063 C.ar    1  UNL1       -0.0003
     28 C         140.0121  146.3015  157.5448 C.ar    1  UNL1       -0.0042
@<TRIPOS>BOND
     1     1     2    1
     2     2     3    1
     3     2     4    1
     4     4     5    1
     5     5     6    1
     6     6     7    1
     7     7     8    1
     8     8    21    1
     9    21    22    1
    10    22    23    1
    11    23    24   ar
    12    24    25   ar
    13    25    26   ar
    14    26    27   ar
    15    27    28   ar
    16     8     9    1
    17     9    10    1
    18     5    11    1
    19    11    12    1
    20    12    15    1
    21    15    16   ar
    22    16    17   ar
    23    17    18   ar
    24    18    19   ar
    25    19    20   ar
    26    12    13   am
    27    13    14    2
    28    13     2    1
    29    10     5    1
    30    20    15   ar
    31    28    23   ar
@<TRIPOS>MOLECULE
*****
 28 31 0 0 0
SMALL
GASTEIGER

@<TRIPOS>ATOM
      1 C         138.4661  139.4366  166.0914 C.3     1  UNL1        0.0391
      2 C         138.8909  140.6022  165.2483 C.3     1  UNL1        0.1611
      3 C         137.9934  139.8927  164.2783 C.3     1  UNL1        0.0391
      4 O         139.0041  141.5214  164.0684 O.3     1  UNL1       -0.3529
      5 C         139.8673  142.7454  164.1512 C.3     1  UNL1        0.1144
      6 C         140.7304  143.9694  164.2340 C.3     1  UNL1        0.0463
      7 C         140.8435  144.8885  163.0541 C.3     1  UNL1        0.0746
      8 N         140.0935  144.5837  161.7913 N.3     1  UNL1       -0.2722
      9 C         139.2304  143.3598  161.7084 C.3     1  UNL1        0.0746
     10 C         139.1173  142.4406  162.8884 C.3     1  UNL1        0.0463
     11 C         140.6173  143.0502  165.4139 C.3     1  UNL1        0.1254
     12 N         140.5041  142.1309  166.5939 N.am    1  UNL1       -0.2544
     13 C         139.6409  140.9070  166.5111 C.2     1  UNL1        0.2538
     14 O         139.5278  139.9878  167.6910 O.2     1  UNL1       -0.2720
     15 C         141.2541  142.4357  167.8567 C.ar    1  UNL1        0.0540
     16 C         142.6685  141.9643  168.0213 C.ar    1  UNL1        0.0149
     17 C         143.4185  142.2691  169.2841 C.ar    1  UNL1        0.0013
     18 C         142.7541  143.0453  170.3822 C.ar    1  UNL1        0.0001
     19 C         141.3396  143.5167  170.2177 C.ar    1  UNL1        0.0013
     20 C         140.5896  143.2119  168.9549 C.ar    1  UNL1        0.0149
     21 C         140.2067  145.5030  160.6113 C.3     1  UNL1        0.0768
     22 C         141.2666  145.2678  159.5763 C.3     1  UNL1        0.0437
     23 C         141.7405  143.8734  159.2915 C.ar    1  UNL1       -0.0208
     24 C         142.9388  143.3271  160.0096 C.ar    1  UNL1       -0.0042
     25 C         143.4126  141.9328  159.7248 C.ar    1  UNL1       -0.0003
     26 C         142.6882  141.0847  158.7217 C.ar    1  UNL1       -0.0000
     27 C         141.4900  141.6310  158.0036 C.ar    1  UNL1       -0.0003
     28 C         141.0162  143.0253  158.2885 C.ar    1  UNL1       -0.0042
@<TRIPOS>BOND
     1     1     2    1
     2     2     3    1
     3     2     4    1
     4     4     5    1
     5     5     6    1
     6     6     7    1
     7     7     8    1
     8     8    21    1
     9    21    22    1
    10    22    23    1
    11    23    24   ar
    12    24    25   ar
    13    25    26   ar
    14    26    27   ar
    15    27    28   ar
    16     8     9    1
    17     9    10    1
    18     5    11    1
    19    11    12    1
    20    12    15    1
    21    15    16   ar
    22    16    17   ar
    23    17    18   ar
    24    18    19   ar
    25    19    20   ar
    26    12    13   am
    27    13    14    2
    28    13     2    1
    29    10     5    1
    30    20    15   ar
    31    28    23   ar
@<TRIPOS>MOLECULE
*****
 28 31 0 0 0
SMALL
GASTEIGER

@<TRIPOS>ATOM
      1 C         138.1371  138.2670  166.1038 C.3     1  UNL1        0.0391
      2 C         139.3704  138.8873  165.5172 C.3     1  UNL1        0.1611
      3 C         138.9015  138.0798  164.3434 C.3     1  UNL1        0.0391
      4 O         140.4409  139.2272  164.5230 O.3     1  UNL1       -0.3529
      5 C         141.5520  140.1592  164.9064 C.3     1  UNL1        0.1144
      6 C         142.6630  141.0912  165.2897 C.3     1  UNL1        0.0463
      7 C         143.7335  141.4310  164.2955 C.3     1  UNL1        0.0746
      8 N         143.6929  140.8390  162.9179 N.3     1  UNL1       -0.2722
      9 C         142.5819  139.9070  162.5345 C.3     1  UNL1        0.0746
     10 C         141.5114  139.5671  163.5287 C.3     1  UNL1        0.0463
     11 C         141.5926  140.7513  166.2840 C.3     1  UNL1        0.1254
     12 N         140.5221  140.4113  167.2782 N.am    1  UNL1       -0.2544
     13 C         139.4110  139.4794  166.8949 C.2     1  UNL1        0.2538
     14 O         138.3405  139.1394  167.8891 O.2     1  UNL1       -0.2720
     15 C         140.5626  141.0034  168.6558 C.ar    1  UNL1        0.0540
     16 C         140.8815  140.1347  169.8364 C.ar    1  UNL1        0.0149
     17 C         140.9220  140.7268  171.2140 C.ar    1  UNL1        0.0013
     18 C         140.6438  142.1875  171.4111 C.ar    1  UNL1        0.0001
     19 C         140.3250  143.0562  170.2305 C.ar    1  UNL1        0.0013
     20 C         140.2844  142.4642  168.8529 C.ar    1  UNL1        0.0149
     21 C         144.7634  141.1789  161.9236 C.3     1  UNL1        0.0768
     22 C         144.6777  142.4520  161.1350 C.3     1  UNL1        0.0437
     23 C         143.4167  143.2642  161.1567 C.ar    1  UNL1       -0.0208
     24 C         142.4338  143.1536  160.0292 C.ar    1  UNL1       -0.0042
     25 C         141.1730  143.9658  160.0510 C.ar    1  UNL1       -0.0003
     26 C         140.8951  144.8887  161.2004 C.ar    1  UNL1       -0.0000
     27 C         141.8780  144.9993  162.3280 C.ar    1  UNL1       -0.0003
     28 C         143.1389  144.1871  162.3061 C.ar    1  UNL1       -0.0042
@<TRIPOS>BOND
     1     1     2    1
     2     2     3    1
     3     2     4    1
     4     4     5    1
     5     5     6    1
     6     6     7    1
     7     7     8    1
     8     8    21    1
     9    21    22    1
    10    22    23    1
    11    23    24   ar
    12    24    25   ar
    13    25    26   ar
    14    26    27   ar
    15    27    28   ar
    16     8     9    1
    17     9    10    1
    18     5    11    1
    19    11    12    1
    20    12    15    1
    21    15    16   ar
    22    16    17   ar
    23    17    18   ar
    24    18    19   ar
    25    19    20   ar
    26    12    13   am
    27    13    14    2
    28    13     2    1
    29    10     5    1
    30    20    15   ar
    31    28    23   ar
@<TRIPOS>MOLECULE
*****
 28 31 0 0 0
SMALL
GASTEIGER

@<TRIPOS>ATOM
      1 C         138.3406  138.8009  166.9649 C.3     1  UNL1        0.0391
      2 C         139.2918  139.2762  165.9069 C.3     1  UNL1        0.1611
      3 C         138.4324  138.3571  165.0905 C.3     1  UNL1        0.0391
      4 O         139.9445  139.4323  164.5654 O.3     1  UNL1       -0.3529
      5 C         141.1263  140.3425  164.4077 C.3     1  UNL1        0.1144
      6 C         142.3081  141.2527  164.2500 C.3     1  UNL1        0.0463
      7 C         142.9608  141.4088  162.9086 C.3     1  UNL1        0.0746
      8 N         142.4317  140.6547  161.7248 N.3     1  UNL1       -0.2722
      9 C         141.2499  139.7445  161.8824 C.3     1  UNL1        0.0746
     10 C         140.5972  139.5884  163.2239 C.3     1  UNL1        0.0463
     11 C         141.6555  141.0966  165.5915 C.3     1  UNL1        0.1254
     12 N         141.0027  140.9405  166.9330 N.am    1  UNL1       -0.2544
     13 C         139.8209  140.0303  167.0907 C.2     1  UNL1        0.2538
     14 O         139.1682  139.8742  168.4322 O.2     1  UNL1       -0.2720
     15 C         141.5318  141.6946  168.1168 C.ar    1  UNL1        0.0540
     16 C         140.6995  142.7658  168.7568 C.ar    1  UNL1        0.0149
     17 C         141.2286  143.5199  169.9406 C.ar    1  UNL1        0.0013
     18 C         142.5900  143.2027  170.4845 C.ar    1  UNL1        0.0001
     19 C         143.4224  142.1314  169.8445 C.ar    1  UNL1        0.0013
     20 C         142.8933  141.3773  168.6607 C.ar    1  UNL1        0.0149
     21 C         143.0845  140.8108  160.3832 C.3     1  UNL1        0.0768
     22 C         143.7551  142.1028  160.0213 C.3     1  UNL1        0.0437
     23 C         142.9409  143.2512  159.5033 C.ar    1  UNL1       -0.0208
     24 C         143.0736  143.6793  158.0719 C.ar    1  UNL1       -0.0042
     25 C         142.2594  144.8277  157.5541 C.ar    1  UNL1       -0.0003
     26 C         141.3124  145.5479  158.4676 C.ar    1  UNL1       -0.0000
     27 C         141.1796  145.1197  159.8990 C.ar    1  UNL1       -0.0003
     28 C         141.9939  143.9713  160.4169 C.ar    1  UNL1       -0.0042
@<TRIPOS>BOND
     1     1     2    1
     2     2     3    1
     3     2     4    1
     4     4     5    1
     5     5     6    1
     6     6     7    1
     7     7     8    1
     8     8    21    1
     9    21    22    1
    10    22    23    1
    11    23    24   ar
    12    24    25   ar
    13    25    26   ar
    14    26    27   ar
    15    27    28   ar
    16     8     9    1
    17     9    10    1
    18     5    11    1
    19    11    12    1
    20    12    15    1
    21    15    16   ar
    22    16    17   ar
    23    17    18   ar
    24    18    19   ar
    25    19    20   ar
    26    12    13   am
    27    13    14    2
    28    13     2    1
    29    10     5    1
    30    20    15   ar
    31    28    23   ar
@<TRIPOS>MOLECULE
*****
 28 31 0 0 0
SMALL
GASTEIGER

@<TRIPOS>ATOM
      1 C         144.5151  139.3613  164.7373 C.3     1  UNL1        0.0391
      2 C         143.7149  140.3339  163.9225 C.3     1  UNL1        0.1611
      3 C         145.1001  140.6991  163.4777 C.3     1  UNL1        0.0391
      4 O         143.3959  141.4332  162.9532 O.3     1  UNL1       -0.3529
      5 C         141.9695  141.8296  162.7116 C.3     1  UNL1        0.1144
      6 C         140.5431  142.2259  162.4700 C.3     1  UNL1        0.0463
      7 C         140.2241  143.3252  161.5007 C.3     1  UNL1        0.0746
      8 N         141.3314  144.0283  160.7730 N.3     1  UNL1       -0.2722
      9 C         142.7577  143.6320  161.0145 C.3     1  UNL1        0.0746
     10 C         143.0768  142.5326  161.9838 C.3     1  UNL1        0.0463
     11 C         140.8622  141.1265  163.4393 C.3     1  UNL1        0.1254
     12 N         141.1813  140.0271  164.4087 N.am    1  UNL1       -0.2544
     13 C         142.6076  139.6308  164.6502 C.2     1  UNL1        0.2538
     14 O         142.9268  138.5314  165.6196 O.2     1  UNL1       -0.2720
     15 C         140.0740  139.3241  165.1364 C.ar    1  UNL1        0.0540
     16 C         139.4564  139.9529  166.3501 C.ar    1  UNL1        0.0149
     17 C         138.3491  139.2499  167.0779 C.ar    1  UNL1        0.0013
     18 C         137.8594  137.9180  166.5919 C.ar    1  UNL1        0.0001
     19 C         138.4769  137.2891  165.3781 C.ar    1  UNL1        0.0013
     20 C         139.5842  137.9921  164.6504 C.ar    1  UNL1        0.0149
     21 C         141.0122  145.1277  159.8036 C.3     1  UNL1        0.0768
     22 C         141.8172  145.2765  158.5468 C.3     1  UNL1        0.0437
     23 C         141.1579  145.7501  157.2854 C.ar    1  UNL1       -0.0208
     24 C         141.7731  145.4361  155.9540 C.ar    1  UNL1       -0.0042
     25 C         141.1137  145.9096  154.6927 C.ar    1  UNL1       -0.0003
     26 C         139.8391  146.6973  154.7628 C.ar    1  UNL1       -0.0000
     27 C         139.2238  147.0113  156.0943 C.ar    1  UNL1       -0.0003
     28 C         139.8832  146.5377  157.3556 C.ar    1  UNL1       -0.0042
@<TRIPOS>BOND
     1     1     2    1
     2     2     3    1
     3     2     4    1
     4     4     5    1
     5     5     6    1
     6     6     7    1
     7     7     8    1
     8     8    21    1
     9    21    22    1
    10    22    23    1
    11    23    24   ar
    12    24    25   ar
    13    25    26   ar
    14    26    27   ar
    15    27    28   ar
    16     8     9    1
    17     9    10    1
    18     5    11    1
    19    11    12    1
    20    12    15    1
    21    15    16   ar
    22    16    17   ar
    23    17    18   ar
    24    18    19   ar
    25    19    20   ar
    26    12    13   am
    27    13    14    2
    28    13     2    1
    29    10     5    1
    30    20    15   ar
    31    28    23   ar
@<TRIPOS>MOLECULE
*****
 28 31 0 0 0
SMALL
GASTEIGER

@<TRIPOS>ATOM
      1 C         139.9306  144.7984  163.9909 C.3     1  UNL1        0.0391
      2 C         140.3454  144.7523  162.5501 C.3     1  UNL1        0.1611
      3 C         139.2029  145.7201  162.4613 C.3     1  UNL1        0.0391
      4 O         140.3635  145.0423  161.0786 O.3     1  UNL1       -0.3529
      5 C         141.3801  144.3805  160.1961 C.3     1  UNL1        0.1144
      6 C         142.3966  143.7187  159.3137 C.3     1  UNL1        0.0463
      7 C         142.4147  144.0087  157.8422 C.3     1  UNL1        0.0746
      8 N         141.4162  144.9605  157.2530 N.3     1  UNL1       -0.2722
      9 C         140.3997  145.6223  158.1354 C.3     1  UNL1        0.0746
     10 C         140.3816  145.3323  159.6069 C.3     1  UNL1        0.0463
     11 C         142.3786  143.4287  160.7853 C.3     1  UNL1        0.1254
     12 N         142.3605  143.1387  162.2569 N.am    1  UNL1       -0.2544
     13 C         141.3439  143.8005  163.1393 C.2     1  UNL1        0.2538
     14 O         141.3258  143.5105  164.6110 O.2     1  UNL1       -0.2720
     15 C         143.3589  142.1869  162.8461 C.ar    1  UNL1        0.0540
     16 C         142.9825  140.7536  163.0781 C.ar    1  UNL1        0.0149
     17 C         143.9810  139.8018  163.6673 C.ar    1  UNL1        0.0013
     18 C         145.3559  140.2833  164.0245 C.ar    1  UNL1        0.0001
     19 C         145.7324  141.7167  163.7925 C.ar    1  UNL1        0.0013
     20 C         144.7339  142.6685  163.2033 C.ar    1  UNL1        0.0149
     21 C         141.4343  145.2505  155.7813 C.3     1  UNL1        0.0768
     22 C         140.1744  145.6706  155.0842 C.3     1  UNL1        0.0437
     23 C         139.9388  147.1180  154.7685 C.ar    1  UNL1       -0.0208
     24 C         139.0196  147.9333  155.6289 C.ar    1  UNL1       -0.0042
     25 C         138.7840  149.3806  155.3132 C.ar    1  UNL1       -0.0003
     26 C         139.4676  150.0127  154.1371 C.ar    1  UNL1       -0.0000
     27 C         140.3868  149.1974  153.2767 C.ar    1  UNL1       -0.0003
     28 C         140.6224  147.7500  153.5924 C.ar    1  UNL1       -0.0042
@<TRIPOS>BOND
     1     1     2    1
     2     2     3    1
     3     2     4    1
     4     4     5    1
     5     5     6    1
     6     6     7    1
     7     7     8    1
     8     8    21    1
     9    21    22    1
    10    22    23    1
    11    23    24   ar
    12    24    25   ar
    13    25    26   ar
    14    26    27   ar
    15    27    28   ar
    16     8     9    1
    17     9    10    1
    18     5    11    1
    19    11    12    1
    20    12    15    1
    21    15    16   ar
    22    16    17   ar
    23    17    18   ar
    24    18    19   ar
    25    19    20   ar
    26    12    13   am
    27    13    14    2
    28    13     2    1
    29    10     5    1
    30    20    15   ar
    31    28    23   ar
@<TRIPOS>MOLECULE
*****
 28 31 0 0 0
SMALL
GASTEIGER

@<TRIPOS>ATOM
      1 C         145.3256  141.7422  162.6742 C.3     1  UNL1        0.0391
      2 C         144.1035  141.4825  163.5042 C.3     1  UNL1        0.1611
      3 C         145.1017  140.6377  164.2390 C.3     1  UNL1        0.0391
      4 O         143.2280  140.9293  164.5893 O.3     1  UNL1       -0.3529
      5 C         141.7787  141.3111  164.6514 C.3     1  UNL1        0.1144
      6 C         140.3295  141.6929  164.7134 C.3     1  UNL1        0.0463
      7 C         139.4540  141.1398  165.7986 C.3     1  UNL1        0.0746
      8 N         140.0277  140.2048  166.8216 N.3     1  UNL1       -0.2722
      9 C         141.4770  139.8230  166.7596 C.3     1  UNL1        0.0746
     10 C         142.3524  140.3762  165.6744 C.3     1  UNL1        0.0463
     11 C         141.2049  142.2461  163.6283 C.3     1  UNL1        0.1254
     12 N         142.0805  142.7992  162.5432 N.am    1  UNL1       -0.2544
     13 C         143.5297  142.4174  162.4811 C.2     1  UNL1        0.2538
     14 O         144.4053  142.9706  161.3959 O.2     1  UNL1       -0.2720
     15 C         141.5067  143.7342  161.5201 C.ar    1  UNL1        0.0540
     16 C         141.7459  143.4867  160.0602 C.ar    1  UNL1        0.0149
     17 C         141.1721  144.4216  159.0371 C.ar    1  UNL1        0.0013
     18 C         140.3592  145.6041  159.4740 C.ar    1  UNL1        0.0001
     19 C         140.1201  145.8517  160.9340 C.ar    1  UNL1        0.0013
     20 C         140.6938  144.9167  161.9571 C.ar    1  UNL1        0.0149
     21 C         139.1522  139.6517  167.9068 C.3     1  UNL1        0.0768
     22 C         139.2398  140.2071  169.2973 C.3     1  UNL1        0.0437
     23 C         140.3324  141.1717  169.6522 C.ar    1  UNL1       -0.0208
     24 C         140.1083  142.6472  169.5017 C.ar    1  UNL1       -0.0042
     25 C         141.2009  143.6117  169.8566 C.ar    1  UNL1       -0.0003
     26 C         142.5175  143.1007  170.3620 C.ar    1  UNL1       -0.0000
     27 C         142.7416  141.6253  170.5125 C.ar    1  UNL1       -0.0003
     28 C         141.6490  140.6608  170.1577 C.ar    1  UNL1       -0.0042
@<TRIPOS>BOND
     1     1     2    1
     2     2     3    1
     3     2     4    1
     4     4     5    1
     5     5     6    1
     6     6     7    1
     7     7     8    1
     8     8    21    1
     9    21    22    1
    10    22    23    1
    11    23    24   ar
    12    24    25   ar
    13    25    26   ar
    14    26    27   ar
    15    27    28   ar
    16     8     9    1
    17     9    10    1
    18     5    11    1
    19    11    12    1
    20    12    15    1
    21    15    16   ar
    22    16    17   ar
    23    17    18   ar
    24    18    19   ar
    25    19    20   ar
    26    12    13   am
    27    13    14    2
    28    13     2    1
    29    10     5    1
    30    20    15   ar
    31    28    23   ar
@<TRIPOS>MOLECULE
*****
 28 31 0 0 0
SMALL
GASTEIGER

@<TRIPOS>ATOM
      1 C         143.8738  140.5369  155.8471 C.3     1  UNL1        0.0391
      2 C         143.7126  140.1520  157.2879 C.3     1  UNL1        0.1611
      3 C         144.1801  141.5682  157.4475 C.3     1  UNL1        0.0391
      4 O         143.7137  140.2588  158.7840 O.3     1  UNL1       -0.3529
      5 C         143.3033  139.0831  159.6203 C.3     1  UNL1        0.1144
      6 C         142.8929  137.9074  160.4565 C.3     1  UNL1        0.0463
      7 C         142.8941  138.0143  161.9526 C.3     1  UNL1        0.0746
      8 N         143.3056  139.2969  162.6126 N.3     1  UNL1       -0.2722
      9 C         143.7160  140.4726  161.7764 C.3     1  UNL1        0.0746
     10 C         143.7149  140.3657  160.2803 C.3     1  UNL1        0.0463
     11 C         142.8918  137.8005  158.9603 C.3     1  UNL1        0.1254
     12 N         142.8906  137.6937  157.4641 N.am    1  UNL1       -0.2544
     13 C         143.3010  138.8694  156.6279 C.2     1  UNL1        0.2538
     14 O         143.2999  138.7625  155.1317 O.2     1  UNL1       -0.2720
     15 C         142.4791  136.4111  156.8041 C.ar    1  UNL1        0.0540
     16 C         143.2254  135.1435  157.0975 C.ar    1  UNL1        0.0149
     17 C         142.8139  133.8609  156.4375 C.ar    1  UNL1        0.0013
     18 C         141.6560  133.8459  155.4841 C.ar    1  UNL1        0.0001
     19 C         140.9095  135.1135  155.1907 C.ar    1  UNL1        0.0013
     20 C         141.3211  136.3961  155.8507 C.ar    1  UNL1        0.0149
     21 C         143.3067  139.4037  164.1088 C.3     1  UNL1        0.0768
     22 C         142.6539  138.3373  164.9374 C.3     1  UNL1        0.0437
     23 C         141.2106  138.4669  165.3248 C.ar    1  UNL1       -0.0208
     24 C         140.1952  137.5159  164.7640 C.ar    1  UNL1       -0.0042
     25 C         138.7519  137.6455  165.1514 C.ar    1  UNL1       -0.0003
     26 C         138.3240  138.7262  166.0996 C.ar    1  UNL1       -0.0000
     27 C         139.3394  139.6772  166.6605 C.ar    1  UNL1       -0.0003
     28 C         140.7827  139.5475  166.2730 C.ar    1  UNL1       -0.0042
@<TRIPOS>BOND
     1     1     2    1
     2     2     3    1
     3     2     4    1
     4     4     5    1
     5     5     6    1
     6     6     7    1
     7     7     8    1
     8     8    21    1
     9    21    22    1
    10    22    23    1
    11    23    24   ar
    12    24    25   ar
    13    25    26   ar
    14    26    27   ar
    15    27    28   ar
    16     8     9    1
    17     9    10    1
    18     5    11    1
    19    11    12    1
    20    12    15    1
    21    15    16   ar
    22    16    17   ar
    23    17    18   ar
    24    18    19   ar
    25    19    20   ar
    26    12    13   am
    27    13    14    2
    28    13     2    1
    29    10     5    1
    30    20    15   ar
    31    28    23   ar
@<TRIPOS>MOLECULE
*****
 28 31 0 0 0
SMALL
GASTEIGER

@<TRIPOS>ATOM
      1 C         143.6939  138.7640  165.7691 C.3     1  UNL1        0.0391
      2 C         142.9985  139.8124  164.9521 C.3     1  UNL1        0.1611
      3 C         143.8663  139.1931  163.8970 C.3     1  UNL1        0.0391
      4 O         142.6046  140.6456  163.7687 O.3     1  UNL1       -0.3529
      5 C         141.5842  141.7342  163.9242 C.3     1  UNL1        0.1144
      6 C         140.5640  142.8226  164.0797 C.3     1  UNL1        0.0463
      7 C         140.1700  143.6559  162.8963 C.3     1  UNL1        0.0746
      8 N         140.7963  143.4007  161.5574 N.3     1  UNL1       -0.2722
      9 C         141.8166  142.3122  161.4020 C.3     1  UNL1        0.0746
     10 C         142.2106  141.4790  162.5853 C.3     1  UNL1        0.0463
     11 C         140.9579  141.9894  165.2631 C.3     1  UNL1        0.1254
     12 N         141.3519  141.1560  166.4465 N.am    1  UNL1       -0.2544
     13 C         142.3722  140.0676  166.2910 C.2     1  UNL1        0.2538
     14 O         142.7662  139.2342  167.4744 O.2     1  UNL1       -0.2720
     15 C         140.7256  141.4112  167.7854 C.ar    1  UNL1        0.0540
     16 C         140.9749  142.7091  168.4949 C.ar    1  UNL1        0.0149
     17 C         140.3486  142.9643  169.8338 C.ar    1  UNL1        0.0013
     18 C         139.4729  141.9217  170.4631 C.ar    1  UNL1        0.0001
     19 C         139.2236  140.6238  169.7536 C.ar    1  UNL1        0.0013
     20 C         139.8499  140.3685  168.4147 C.ar    1  UNL1        0.0149
     21 C         140.4023  144.2340  160.3740 C.3     1  UNL1        0.0768
     22 C         141.4311  145.0645  159.6656 C.3     1  UNL1        0.0437
     23 C         141.2811  145.3565  158.2020 C.ar    1  UNL1       -0.0208
     24 C         142.3260  144.8887  157.2329 C.ar    1  UNL1       -0.0042
     25 C         142.1759  145.1807  155.7693 C.ar    1  UNL1       -0.0003
     26 C         140.9809  145.9406  155.2748 C.ar    1  UNL1       -0.0000
     27 C         139.9360  146.4085  156.2439 C.ar    1  UNL1       -0.0003
     28 C         140.0861  146.1164  157.7075 C.ar    1  UNL1       -0.0042
@<TRIPOS>BOND
     1     1     2    1
     2     2     3    1
     3     2     4    1
     4     4     5    1
     5     5     6    1
     6     6     7    1
     7     7     8    1
     8     8    21    1
     9    21    22    1
    10    22    23    1
    11    23    24   ar
    12    24    25   ar
    13    25    26   ar
    14    26    27   ar
    15    27    28   ar
    16     8     9    1
    17     9    10    1
    18     5    11    1
    19    11    12    1
    20    12    15    1
    21    15    16   ar
    22    16    17   ar
    23    17    18   ar
    24    18    19   ar
    25    19    20   ar
    26    12    13   am
    27    13    14    2
    28    13     2    1
    29    10     5    1
    30    20    15   ar
    31    28    23   ar
