@<TRIPOS>MOLECULE
*****
 30 34 0 0 0
SMALL
GASTEIGER

@<TRIPOS>ATOM
      1 N         138.0560  141.9701  159.8601 N.pl3   1  UNL1       -0.3425
      2 C         138.2407  141.5325  161.2830 C.ar    1  UNL1        0.1299
      3 N         137.5693  142.2863  162.3926 N.ar    1  UNL1       -0.2295
      4 C         137.7540  141.8488  163.8154 C.ar    1  UNL1        0.1003
      5 C         138.6100  140.6576  164.1287 C.ar    1  UNL1        0.0225
      6 C         139.2813  139.9038  163.0191 C.ar    1  UNL1        0.0091
      7 C         139.0967  140.3413  161.5963 C.ar    1  UNL1        0.0847
      8 H         137.4941  142.7519  159.6545 H       1  UNL1        0.1437
      9 H         138.4966  141.4754  159.1319 H       1  UNL1        0.1437
     10 C         139.7680  139.5875  160.4867 C.ar    1  UNL1        0.2324
     11 N         139.1173  139.1198  159.2188 N.ar    1  UNL1       -0.2082
     12 C         140.1550  138.4123  158.3987 C.ar    1  UNL1        0.1189
     13 C         140.0903  137.7443  157.0572 C.ar    1  UNL1        0.0223
     14 C         141.3178  137.1068  156.4769 C.ar    1  UNL1        0.0018
     15 C         142.6100  137.1373  157.2380 C.ar    1  UNL1        0.0032
     16 C         142.6747  137.8053  158.5795 C.ar    1  UNL1        0.0391
     17 C         141.4472  138.4428  159.1598 C.ar    1  UNL1        0.1647
     18 O         141.2080  139.1692  160.4503 O.2     1  UNL1       -0.4345
     19 C         138.7947  140.2200  165.5516 C.ar    1  UNL1        0.0411
     20 C         137.9635  139.2031  166.2762 C.ar    1  UNL1        0.1217
     21 N         138.4980  139.0772  167.6721 N.ar    1  UNL1       -0.1677
     22 N         139.6596  140.0163  167.8101 N.ar    1  UNL1       -0.2512
     23 C         139.8428  140.7226  166.4995 C.ar    1  UNL1        0.0966
     24 C         140.4917  140.2143  169.0423 C.3     1  UNL1        0.1080
     25 C         141.9146  139.7405  169.0706 C.3     1  UNL1        0.0415
     26 C         142.7467  139.9385  170.3029 C.3     1  UNL1        0.0706
     27 N         142.1558  140.6103  171.5067 N.3     1  UNL1       -0.2974
     28 C         140.7329  141.0842  171.4785 C.3     1  UNL1        0.0706
     29 C         139.9009  140.8862  170.2463 C.3     1  UNL1        0.0415
     30 H         142.7345  141.4274  171.7016 H       1  UNL1        0.1232
@<TRIPOS>BOND
     1     1     2    1
     2     2     3   ar
     3     3     4   ar
     4     4     5   ar
     5     5    19    1
     6    19    20   ar
     7    20    21   ar
     8    21    22   ar
     9    22    24    1
    10    24    25    1
    11    25    26    1
    12    26    27    1
    13    27    28    1
    14    28    29    1
    15    22    23   ar
    16     5     6   ar
    17     6     7   ar
    18     7    10    1
    19    10    11   ar
    20    11    12   ar
    21    12    13   ar
    22    13    14   ar
    23    14    15   ar
    24    15    16   ar
    25    16    17   ar
    26    17    18   ar
    27     7     2   ar
    28    18    10   ar
    29    23    19   ar
    30    17    12   ar
    31    29    24    1
    32     1     8    1
    33     1     9    1
    34    27    30    1
@<TRIPOS>MOLECULE
*****
 30 34 0 0 0
SMALL
GASTEIGER

@<TRIPOS>ATOM
      1 N         139.2105  138.7303  159.7396 N.pl3   1  UNL1       -0.3425
      2 C         139.1800  138.8724  161.2326 C.ar    1  UNL1        0.1299
      3 N         138.8907  137.6789  162.0938 N.ar    1  UNL1       -0.2295
      4 C         138.8602  137.8209  163.5867 C.ar    1  UNL1        0.1003
      5 C         139.1191  139.1565  164.2184 C.ar    1  UNL1        0.0225
      6 C         139.4085  140.3501  163.3572 C.ar    1  UNL1        0.0091
      7 C         139.4389  140.2080  161.8643 C.ar    1  UNL1        0.0847
      8 H         139.0406  137.8537  159.3250 H       1  UNL1        0.1437
      9 H         139.4004  139.5137  159.1743 H       1  UNL1        0.1437
     10 C         139.7283  141.4016  161.0031 C.ar    1  UNL1        0.2324
     11 N         140.6356  142.5432  161.3544 N.ar    1  UNL1       -0.2082
     12 C         140.6293  143.5103  160.2078 C.ar    1  UNL1        0.1189
     13 C         141.3355  144.8159  159.9920 C.ar    1  UNL1        0.0223
     14 C         141.1305  145.5775  158.7162 C.ar    1  UNL1        0.0018
     15 C         140.2192  145.0336  157.6561 C.ar    1  UNL1        0.0032
     16 C         139.5130  143.7280  157.8719 C.ar    1  UNL1        0.0391
     17 C         139.7180  142.9663  159.1478 C.ar    1  UNL1        0.1647
     18 O         139.1612  141.6631  159.6393 O.2     1  UNL1       -0.4345
     19 C         139.0886  139.2986  165.7114 C.ar    1  UNL1        0.0411
     20 C         137.9826  138.8456  166.6178 C.ar    1  UNL1        0.1217
     21 N         138.3692  139.1856  168.0267 N.ar    1  UNL1       -0.1677
     22 N         139.7142  139.8488  167.9910 N.ar    1  UNL1       -0.2512
     23 C         140.1588  139.9186  166.5601 C.ar    1  UNL1        0.0966
     24 C         140.4801  140.3536  169.1779 C.3     1  UNL1        0.1080
     25 C         139.9547  141.5127  169.9718 C.3     1  UNL1        0.0415
     26 C         140.7206  142.0174  171.1587 C.3     1  UNL1        0.0706
     27 N         142.0118  141.3630  171.5515 N.3     1  UNL1       -0.2974
     28 C         142.5373  140.2038  170.7576 C.3     1  UNL1        0.0706
     29 C         141.7713  139.6992  169.5708 C.3     1  UNL1        0.0415
     30 H         141.8958  141.0348  172.5103 H       1  UNL1        0.1232
@<TRIPOS>BOND
     1     1     2    1
     2     2     3   ar
     3     3     4   ar
     4     4     5   ar
     5     5    19    1
     6    19    20   ar
     7    20    21   ar
     8    21    22   ar
     9    22    24    1
    10    24    25    1
    11    25    26    1
    12    26    27    1
    13    27    28    1
    14    28    29    1
    15    22    23   ar
    16     5     6   ar
    17     6     7   ar
    18     7    10    1
    19    10    11   ar
    20    11    12   ar
    21    12    13   ar
    22    13    14   ar
    23    14    15   ar
    24    15    16   ar
    25    16    17   ar
    26    17    18   ar
    27     7     2   ar
    28    18    10   ar
    29    23    19   ar
    30    17    12   ar
    31    29    24    1
    32     1     8    1
    33     1     9    1
    34    27    30    1
@<TRIPOS>MOLECULE
*****
 30 34 0 0 0
SMALL
GASTEIGER

@<TRIPOS>ATOM
      1 N         138.2848  142.8900  160.0036 N.pl3   1  UNL1       -0.3425
      2 C         138.4775  142.3286  161.3812 C.ar    1  UNL1        0.1299
      3 N         137.3447  142.3481  162.3643 N.ar    1  UNL1       -0.2295
      4 C         137.5374  141.7868  163.7419 C.ar    1  UNL1        0.1003
      5 C         138.8629  141.2060  164.1364 C.ar    1  UNL1        0.0225
      6 C         139.9957  141.1865  163.1533 C.ar    1  UNL1        0.0091
      7 C         139.8030  141.7478  161.7758 C.ar    1  UNL1        0.0847
      8 H         137.4148  143.2712  159.7447 H       1  UNL1        0.1437
      9 H         139.0282  142.8772  159.3584 H       1  UNL1        0.1437
     10 C         140.9358  141.7283  160.7927 C.ar    1  UNL1        0.2324
     11 N         141.5282  142.9232  160.1063 N.ar    1  UNL1       -0.2082
     12 C         142.6336  142.4439  159.2128 C.ar    1  UNL1        0.1189
     13 C         143.5692  143.1726  158.2944 C.ar    1  UNL1        0.0223
     14 C         144.5956  142.4101  157.5102 C.ar    1  UNL1        0.0018
     15 C         144.6864  140.9189  157.6444 C.ar    1  UNL1        0.0032
     16 C         143.7508  140.1902  158.5628 C.ar    1  UNL1        0.0391
     17 C         142.7244  140.9527  159.3470 C.ar    1  UNL1        0.1647
     18 O         141.6751  140.5104  160.3235 O.2     1  UNL1       -0.4345
     19 C         139.0557  140.6446  165.5140 C.ar    1  UNL1        0.0411
     20 C         138.3179  139.4784  166.1020 C.ar    1  UNL1        0.1217
     21 N         138.8262  139.2639  167.4969 N.ar    1  UNL1       -0.1677
     22 N         139.8782  140.2976  167.7709 N.ar    1  UNL1       -0.2512
     23 C         140.0199  141.1509  166.5454 C.ar    1  UNL1        0.0966
     24 C         140.6524  140.4510  169.0465 C.3     1  UNL1        0.1080
     25 C         140.1754  141.4024  170.1035 C.3     1  UNL1        0.0415
     26 C         140.9497  141.5559  171.3791 C.3     1  UNL1        0.0706
     27 N         142.2008  140.7579  171.5976 N.3     1  UNL1       -0.2974
     28 C         142.6778  139.8064  170.5405 C.3     1  UNL1        0.0706
     29 C         141.9036  139.6530  169.2650 C.3     1  UNL1        0.0415
     30 H         142.0553  140.2083  172.4445 H       1  UNL1        0.1232
@<TRIPOS>BOND
     1     1     2    1
     2     2     3   ar
     3     3     4   ar
     4     4     5   ar
     5     5    19    1
     6    19    20   ar
     7    20    21   ar
     8    21    22   ar
     9    22    24    1
    10    24    25    1
    11    25    26    1
    12    26    27    1
    13    27    28    1
    14    28    29    1
    15    22    23   ar
    16     5     6   ar
    17     6     7   ar
    18     7    10    1
    19    10    11   ar
    20    11    12   ar
    21    12    13   ar
    22    13    14   ar
    23    14    15   ar
    24    15    16   ar
    25    16    17   ar
    26    17    18   ar
    27     7     2   ar
    28    18    10   ar
    29    23    19   ar
    30    17    12   ar
    31    29    24    1
    32     1     8    1
    33     1     9    1
    34    27    30    1
@<TRIPOS>MOLECULE
*****
 30 34 0 0 0
SMALL
GASTEIGER

@<TRIPOS>ATOM
      1 N         137.7210  141.0838  164.4134 N.pl3   1  UNL1       -0.3425
      2 C         138.3833  141.8229  163.2886 C.ar    1  UNL1        0.1299
      3 N         137.7705  141.8108  161.9195 N.ar    1  UNL1       -0.2295
      4 C         138.4328  142.5499  160.7948 C.ar    1  UNL1        0.1003
      5 C         139.7079  143.3011  161.0391 C.ar    1  UNL1        0.0225
      6 C         140.3207  143.3132  162.4081 C.ar    1  UNL1        0.0091
      7 C         139.6584  142.5742  163.5329 C.ar    1  UNL1        0.0847
      8 H         136.8841  140.5908  164.2530 H       1  UNL1        0.1437
      9 H         138.1232  141.0918  165.3119 H       1  UNL1        0.1437
     10 C         140.2713  142.5863  164.9019 C.ar    1  UNL1        0.2324
     11 N         141.6713  142.1713  165.2449 N.ar    1  UNL1       -0.2082
     12 C         141.8570  142.3440  166.7233 C.ar    1  UNL1        0.1189
     13 C         143.0304  142.0937  167.6235 C.ar    1  UNL1        0.0223
     14 C         142.9185  142.3651  169.0945 C.ar    1  UNL1        0.0018
     15 C         141.6332  142.8868  169.6652 C.ar    1  UNL1        0.0032
     16 C         140.4598  143.1372  168.7650 C.ar    1  UNL1        0.0391
     17 C         140.5717  142.8658  167.2940 C.ar    1  UNL1        0.1647
     18 O         139.5917  143.0155  166.1684 O.2     1  UNL1       -0.4345
     19 C         140.3702  144.0402  159.9143 C.ar    1  UNL1        0.0411
     20 C         141.8180  144.4265  159.8448 C.ar    1  UNL1        0.1217
     21 N         142.0436  145.1478  158.5492 N.ar    1  UNL1       -0.1677
     22 N         140.7353  145.2074  157.8178 N.ar    1  UNL1       -0.2512
     23 C         139.7011  144.5228  158.6615 C.ar    1  UNL1        0.0966
     24 C         140.5021  145.8403  156.4780 C.3     1  UNL1        0.1080
     25 C         139.4594  146.9075  156.3240 C.3     1  UNL1        0.0415
     26 C         139.2262  147.5404  154.9842 C.3     1  UNL1        0.0706
     27 N         140.0358  147.1061  153.7985 N.3     1  UNL1       -0.2974
     28 C         141.0787  146.0389  153.9526 C.3     1  UNL1        0.0706
     29 C         141.3117  145.4061  155.2923 C.3     1  UNL1        0.0415
     30 H         140.5137  147.9364  153.4483 H       1  UNL1        0.1232
@<TRIPOS>BOND
     1     1     2    1
     2     2     3   ar
     3     3     4   ar
     4     4     5   ar
     5     5    19    1
     6    19    20   ar
     7    20    21   ar
     8    21    22   ar
     9    22    24    1
    10    24    25    1
    11    25    26    1
    12    26    27    1
    13    27    28    1
    14    28    29    1
    15    22    23   ar
    16     5     6   ar
    17     6     7   ar
    18     7    10    1
    19    10    11   ar
    20    11    12   ar
    21    12    13   ar
    22    13    14   ar
    23    14    15   ar
    24    15    16   ar
    25    16    17   ar
    26    17    18   ar
    27     7     2   ar
    28    18    10   ar
    29    23    19   ar
    30    17    12   ar
    31    29    24    1
    32     1     8    1
    33     1     9    1
    34    27    30    1
@<TRIPOS>MOLECULE
*****
 30 34 0 0 0
SMALL
GASTEIGER

@<TRIPOS>ATOM
      1 N         138.3012  138.7711  166.5743 N.pl3   1  UNL1       -0.3425
      2 C         139.2095  138.6451  165.3872 C.ar    1  UNL1        0.1299
      3 N         138.8356  137.7419  164.2494 N.ar    1  UNL1       -0.2295
      4 C         139.7438  137.6158  163.0623 C.ar    1  UNL1        0.1003
      5 C         141.0259  138.3929  163.0130 C.ar    1  UNL1        0.0225
      6 C         141.3997  139.2961  164.1508 C.ar    1  UNL1        0.0091
      7 C         140.4915  139.4221  165.3379 C.ar    1  UNL1        0.0847
      8 H         137.4597  138.2611  166.6067 H       1  UNL1        0.1437
      9 H         138.5466  139.3639  167.3211 H       1  UNL1        0.1437
     10 C         140.8654  140.3253  166.4757 C.ar    1  UNL1        0.2324
     11 N         140.0074  141.4076  167.0609 N.ar    1  UNL1       -0.2082
     12 C         140.7746  142.0560  168.1749 C.ar    1  UNL1        0.1189
     13 C         140.4322  143.1789  169.1085 C.ar    1  UNL1        0.0223
     14 C         141.4221  143.6202  170.1455 C.ar    1  UNL1        0.0018
     15 C         142.7543  142.9386  170.2489 C.ar    1  UNL1        0.0032
     16 C         143.0966  141.8157  169.3152 C.ar    1  UNL1        0.0391
     17 C         142.1068  141.3743  168.2782 C.ar    1  UNL1        0.1647
     18 O         142.1629  140.3048  167.2281 O.2     1  UNL1       -0.4345
     19 C         141.9342  138.2668  161.8259 C.ar    1  UNL1        0.0411
     20 C         143.4216  138.0778  161.8699 C.ar    1  UNL1        0.1217
     21 N         143.9212  138.0018  160.4576 N.ar    1  UNL1       -0.1677
     22 N         142.7425  138.1438  159.5407 N.ar    1  UNL1       -0.2512
     23 C         141.5145  138.3076  160.3864 C.ar    1  UNL1        0.0966
     24 C         142.7846  138.1253  158.0414 C.3     1  UNL1        0.1080
     25 C         142.8971  139.4118  157.2784 C.3     1  UNL1        0.0415
     26 C         142.9391  139.3933  155.7790 C.3     1  UNL1        0.0706
     27 N         142.8686  138.0884  155.0429 N.3     1  UNL1       -0.2974
     28 C         142.7562  136.8018  155.8060 C.3     1  UNL1        0.0706
     29 C         142.7141  136.8204  157.3052 C.3     1  UNL1        0.0415
     30 H         143.7156  138.0227  154.4783 H       1  UNL1        0.1232
@<TRIPOS>BOND
     1     1     2    1
     2     2     3   ar
     3     3     4   ar
     4     4     5   ar
     5     5    19    1
     6    19    20   ar
     7    20    21   ar
     8    21    22   ar
     9    22    24    1
    10    24    25    1
    11    25    26    1
    12    26    27    1
    13    27    28    1
    14    28    29    1
    15    22    23   ar
    16     5     6   ar
    17     6     7   ar
    18     7    10    1
    19    10    11   ar
    20    11    12   ar
    21    12    13   ar
    22    13    14   ar
    23    14    15   ar
    24    15    16   ar
    25    16    17   ar
    26    17    18   ar
    27     7     2   ar
    28    18    10   ar
    29    23    19   ar
    30    17    12   ar
    31    29    24    1
    32     1     8    1
    33     1     9    1
    34    27    30    1
@<TRIPOS>MOLECULE
*****
 30 34 0 0 0
SMALL
GASTEIGER

@<TRIPOS>ATOM
      1 N         139.6535  138.4984  159.9021 N.pl3   1  UNL1       -0.3425
      2 C         140.2335  138.6495  161.2772 C.ar    1  UNL1        0.1299
      3 N         140.3538  137.4546  162.1759 N.ar    1  UNL1       -0.2295
      4 C         140.9337  137.6057  163.5510 C.ar    1  UNL1        0.1003
      5 C         141.3933  138.9517  164.0273 C.ar    1  UNL1        0.0225
      6 C         141.2730  140.1466  163.1286 C.ar    1  UNL1        0.0091
      7 C         140.6931  139.9956  161.7536 C.ar    1  UNL1        0.0847
      8 H         139.3519  137.6150  159.5894 H       1  UNL1        0.1437
      9 H         139.5745  139.2827  159.3122 H       1  UNL1        0.1437
     10 C         140.5728  141.1905  160.8549 C.ar    1  UNL1        0.2324
     11 N         140.6535  142.6263  161.2815 N.ar    1  UNL1       -0.2082
     12 C         140.4812  143.4826  160.0621 C.ar    1  UNL1        0.1189
     13 C         140.4707  144.9707  159.8740 C.ar    1  UNL1        0.0223
     14 C         140.2728  145.5522  158.5055 C.ar    1  UNL1        0.0018
     15 C         140.0856  144.6457  157.3252 C.ar    1  UNL1        0.0032
     16 C         140.0961  143.1576  157.5134 C.ar    1  UNL1        0.0391
     17 C         140.2940  142.5761  158.8818 C.ar    1  UNL1        0.1647
     18 O         140.3505  141.1595  159.3718 O.2     1  UNL1       -0.4345
     19 C         141.9733  139.1028  165.4024 C.ar    1  UNL1        0.0411
     20 C         143.0823  138.2791  165.9870 C.ar    1  UNL1        0.1217
     21 N         143.3405  138.7714  167.3802 N.ar    1  UNL1       -0.1677
     22 N         142.3911  139.8993  167.6567 N.ar    1  UNL1       -0.2512
     23 C         141.5461  140.1041  166.4344 C.ar    1  UNL1        0.0966
     24 C         142.3022  140.6845  168.9317 C.3     1  UNL1        0.1080
     25 C         143.0125  142.0000  169.0533 C.3     1  UNL1        0.0415
     26 C         142.9237  142.7853  170.3283 C.3     1  UNL1        0.0706
     27 N         142.1245  142.2549  171.4815 N.3     1  UNL1       -0.2974
     28 C         141.4141  140.9394  171.3599 C.3     1  UNL1        0.0706
     29 C         141.5030  140.1542  170.0850 C.3     1  UNL1        0.0415
     30 H         141.4136  142.9549  171.6937 H       1  UNL1        0.1232
@<TRIPOS>BOND
     1     1     2    1
     2     2     3   ar
     3     3     4   ar
     4     4     5   ar
     5     5    19    1
     6    19    20   ar
     7    20    21   ar
     8    21    22   ar
     9    22    24    1
    10    24    25    1
    11    25    26    1
    12    26    27    1
    13    27    28    1
    14    28    29    1
    15    22    23   ar
    16     5     6   ar
    17     6     7   ar
    18     7    10    1
    19    10    11   ar
    20    11    12   ar
    21    12    13   ar
    22    13    14   ar
    23    14    15   ar
    24    15    16   ar
    25    16    17   ar
    26    17    18   ar
    27     7     2   ar
    28    18    10   ar
    29    23    19   ar
    30    17    12   ar
    31    29    24    1
    32     1     8    1
    33     1     9    1
    34    27    30    1
@<TRIPOS>MOLECULE
*****
 30 34 0 0 0
SMALL
GASTEIGER

@<TRIPOS>ATOM
      1 N         137.8853  139.7130  165.6612 N.pl3   1  UNL1       -0.3425
      2 C         138.2727  140.7736  164.6737 C.ar    1  UNL1        0.1299
      3 N         137.5863  140.8450  163.3418 N.ar    1  UNL1       -0.2295
      4 C         137.9737  141.9055  162.3543 C.ar    1  UNL1        0.1003
      5 C         139.0474  142.8946  162.6987 C.ar    1  UNL1        0.0225
      6 C         139.7338  142.8233  164.0305 C.ar    1  UNL1        0.0091
      7 C         139.3464  141.7628  165.0180 C.ar    1  UNL1        0.0847
      8 H         137.1805  139.0638  165.4352 H       1  UNL1        0.1437
      9 H         138.3357  139.6662  166.5354 H       1  UNL1        0.1437
     10 C         140.0328  141.6914  166.3499 C.ar    1  UNL1        0.2324
     11 N         140.4091  142.8601  167.2116 N.ar    1  UNL1       -0.2082
     12 C         141.0722  142.3299  168.4482 C.ar    1  UNL1        0.1189
     13 C         141.6498  143.0163  169.6503 C.ar    1  UNL1        0.0223
     14 C         142.2610  142.2063  170.7549 C.ar    1  UNL1        0.0018
     15 C         142.2945  140.7098  170.6574 C.ar    1  UNL1        0.0032
     16 C         141.7170  140.0234  169.4553 C.ar    1  UNL1        0.0391
     17 C         141.1058  140.8334  168.3507 C.ar    1  UNL1        0.1647
     18 O         140.4634  140.4389  167.0539 O.2     1  UNL1       -0.4345
     19 C         139.4349  143.9552  161.7111 C.ar    1  UNL1        0.0411
     20 C         139.4613  145.4327  161.9690 C.ar    1  UNL1        0.1217
     21 N         139.9066  146.1151  160.7097 N.ar    1  UNL1       -0.1677
     22 N         140.1554  145.0594  159.6735 N.ar    1  UNL1       -0.2512
     23 C         139.8638  143.7246  160.2924 C.ar    1  UNL1        0.0966
     24 C         140.6150  145.2970  158.2655 C.3     1  UNL1        0.1080
     25 C         139.8804  146.2689  157.3906 C.3     1  UNL1        0.0415
     26 C         140.3400  146.5065  155.9827 C.3     1  UNL1        0.0706
     27 N         141.5342  145.7720  155.4497 N.3     1  UNL1       -0.2974
     28 C         142.2690  144.7999  156.3246 C.3     1  UNL1        0.0706
     29 C         141.8093  144.5625  157.7324 C.3     1  UNL1        0.0415
     30 H         142.2108  146.4792  155.1624 H       1  UNL1        0.1232
@<TRIPOS>BOND
     1     1     2    1
     2     2     3   ar
     3     3     4   ar
     4     4     5   ar
     5     5    19    1
     6    19    20   ar
     7    20    21   ar
     8    21    22   ar
     9    22    24    1
    10    24    25    1
    11    25    26    1
    12    26    27    1
    13    27    28    1
    14    28    29    1
    15    22    23   ar
    16     5     6   ar
    17     6     7   ar
    18     7    10    1
    19    10    11   ar
    20    11    12   ar
    21    12    13   ar
    22    13    14   ar
    23    14    15   ar
    24    15    16   ar
    25    16    17   ar
    26    17    18   ar
    27     7     2   ar
    28    18    10   ar
    29    23    19   ar
    30    17    12   ar
    31    29    24    1
    32     1     8    1
    33     1     9    1
    34    27    30    1
@<TRIPOS>MOLECULE
*****
 30 34 0 0 0
SMALL
GASTEIGER

@<TRIPOS>ATOM
      1 N         141.5853  145.5822  160.2161 N.pl3   1  UNL1       -0.3425
      2 C         141.3370  144.7751  161.4559 C.ar    1  UNL1        0.1299
      3 N         140.5921  145.3809  162.6084 N.ar    1  UNL1       -0.2295
      4 C         140.3438  144.5739  163.8482 C.ar    1  UNL1        0.1003
      5 C         140.8402  143.1612  163.9354 C.ar    1  UNL1        0.0225
      6 C         141.5850  142.5554  162.7829 C.ar    1  UNL1        0.0091
      7 C         141.8334  143.3624  161.5431 C.ar    1  UNL1        0.0847
      8 H         141.2595  146.5095  160.1589 H       1  UNL1        0.1437
      9 H         142.0742  145.1847  159.4596 H       1  UNL1        0.1437
     10 C         142.5782  142.7566  160.3906 C.ar    1  UNL1        0.2324
     11 N         143.8628  143.2647  159.8062 N.ar    1  UNL1       -0.2082
     12 C         144.2477  142.3585  158.6745 C.ar    1  UNL1        0.1189
     13 C         145.4161  142.3681  157.7340 C.ar    1  UNL1        0.0223
     14 C         145.5377  141.3094  156.6784 C.ar    1  UNL1        0.0018
     15 C         144.4910  140.2412  156.5634 C.ar    1  UNL1        0.0032
     16 C         143.3226  140.2316  157.5039 C.ar    1  UNL1        0.0391
     17 C         143.2010  141.2903  158.5595 C.ar    1  UNL1        0.1647
     18 O         142.1692  141.5364  159.6201 O.2     1  UNL1       -0.4345
     19 C         140.5918  142.3541  165.1752 C.ar    1  UNL1        0.0411
     20 C         139.5311  141.3077  165.3483 C.ar    1  UNL1        0.1217
     21 N         139.6442  140.7586  166.7396 N.ar    1  UNL1       -0.1677
     22 N         140.7749  141.4657  167.4264 N.ar    1  UNL1       -0.2512
     23 C         141.3605  142.4518  166.4595 C.ar    1  UNL1        0.0966
     24 C         141.2385  141.2284  168.8331 C.3     1  UNL1        0.1080
     25 C         142.2997  140.2053  169.1104 C.3     1  UNL1        0.0415
     26 C         142.7634  139.9679  170.5171 C.3     1  UNL1        0.0706
     27 N         142.1658  140.7538  171.6463 N.3     1  UNL1       -0.2974
     28 C         141.1045  141.7770  171.3690 C.3     1  UNL1        0.0706
     29 C         140.6409  142.0142  169.9624 C.3     1  UNL1        0.0415
     30 H         142.9348  141.2437  172.1035 H       1  UNL1        0.1232
@<TRIPOS>BOND
     1     1     2    1
     2     2     3   ar
     3     3     4   ar
     4     4     5   ar
     5     5    19    1
     6    19    20   ar
     7    20    21   ar
     8    21    22   ar
     9    22    24    1
    10    24    25    1
    11    25    26    1
    12    26    27    1
    13    27    28    1
    14    28    29    1
    15    22    23   ar
    16     5     6   ar
    17     6     7   ar
    18     7    10    1
    19    10    11   ar
    20    11    12   ar
    21    12    13   ar
    22    13    14   ar
    23    14    15   ar
    24    15    16   ar
    25    16    17   ar
    26    17    18   ar
    27     7     2   ar
    28    18    10   ar
    29    23    19   ar
    30    17    12   ar
    31    29    24    1
    32     1     8    1
    33     1     9    1
    34    27    30    1
@<TRIPOS>MOLECULE
*****
 30 34 0 0 0
SMALL
GASTEIGER

@<TRIPOS>ATOM
      1 N         140.7288  145.1273  164.0118 N.pl3   1  UNL1       -0.3425
      2 C         141.1179  144.0233  163.0738 C.ar    1  UNL1        0.1299
      3 N         141.4610  144.3369  161.6476 N.ar    1  UNL1       -0.2295
      4 C         141.8501  143.2330  160.7096 C.ar    1  UNL1        0.1003
      5 C         141.8961  141.8155  161.1977 C.ar    1  UNL1        0.0225
      6 C         141.5530  141.5018  162.6238 C.ar    1  UNL1        0.0091
      7 C         141.1639  142.6057  163.5619 C.ar    1  UNL1        0.0847
      8 H         140.6987  146.0577  163.6915 H       1  UNL1        0.1437
      9 H         140.5037  144.9214  164.9479 H       1  UNL1        0.1437
     10 C         140.8208  142.2920  164.9880 C.ar    1  UNL1        0.2324
     11 N         140.2396  141.0045  165.4924 N.ar    1  UNL1       -0.2082
     12 C         140.0583  141.1275  166.9763 C.ar    1  UNL1        0.1189
     13 C         139.5266  140.1740  168.0050 C.ar    1  UNL1        0.0223
     14 C         139.4641  140.5842  169.4464 C.ar    1  UNL1        0.0018
     15 C         139.9332  141.9479  169.8592 C.ar    1  UNL1        0.0032
     16 C         140.4649  142.9013  168.8305 C.ar    1  UNL1        0.0391
     17 C         140.5274  142.4911  167.3891 C.ar    1  UNL1        0.1647
     18 O         140.9987  143.2108  166.1603 O.2     1  UNL1       -0.4345
     19 C         142.2851  140.7114  160.2596 C.ar    1  UNL1        0.0411
     20 C         143.6774  140.2066  160.0214 C.ar    1  UNL1        0.1217
     21 N         143.6031  139.1017  159.0097 N.ar    1  UNL1       -0.1677
     22 N         142.1648  138.9236  158.6227 N.ar    1  UNL1       -0.2512
     23 C         141.3503  139.9185  159.3952 C.ar    1  UNL1        0.0966
     24 C         141.6342  137.9258  157.6364 C.3     1  UNL1        0.1080
     25 C         142.5071  136.8012  157.1639 C.3     1  UNL1        0.0415
     26 C         141.9765  135.8034  156.1775 C.3     1  UNL1        0.0706
     27 N         140.5730  135.9302  155.6637 N.3     1  UNL1       -0.2974
     28 C         139.7000  137.0549  156.1362 C.3     1  UNL1        0.0706
     29 C         140.2307  138.0526  157.1225 C.3     1  UNL1        0.0415
     30 H         140.0921  135.0633  155.9038 H       1  UNL1        0.1232
@<TRIPOS>BOND
     1     1     2    1
     2     2     3   ar
     3     3     4   ar
     4     4     5   ar
     5     5    19    1
     6    19    20   ar
     7    20    21   ar
     8    21    22   ar
     9    22    24    1
    10    24    25    1
    11    25    26    1
    12    26    27    1
    13    27    28    1
    14    28    29    1
    15    22    23   ar
    16     5     6   ar
    17     6     7   ar
    18     7    10    1
    19    10    11   ar
    20    11    12   ar
    21    12    13   ar
    22    13    14   ar
    23    14    15   ar
    24    15    16   ar
    25    16    17   ar
    26    17    18   ar
    27     7     2   ar
    28    18    10   ar
    29    23    19   ar
    30    17    12   ar
    31    29    24    1
    32     1     8    1
    33     1     9    1
    34    27    30    1
