@<TRIPOS>MOLECULE
*****
 30 33 0 0 0
SMALL
GASTEIGER

@<TRIPOS>ATOM
      1 N         141.2684  140.7122  167.6270 N.3     1  UNL1       -0.2679
      2 C         140.3577  139.7811  166.8830 C.3     1  UNL1        0.0978
      3 C         138.9634  139.5391  167.3804 C.3     1  UNL1        0.0224
      4 C         138.0527  138.6080  166.6363 C.3     1  UNL1        0.0065
      5 C         138.5362  137.9189  165.3949 C.3     1  UNL1        0.0277
      6 C         139.9304  138.1609  164.8974 C.ar    1  UNL1       -0.0073
      7 C         140.4140  137.4718  163.6559 C.ar    1  UNL1       -0.0015
      8 C         141.8082  137.7137  163.1585 C.ar    1  UNL1        0.0203
      9 C         142.7190  138.6448  163.9025 C.ar    1  UNL1        0.0985
     10 N         142.2355  139.3340  165.1440 N.ar    1  UNL1       -0.2471
     11 C         140.8412  139.0920  165.6415 C.ar    1  UNL1        0.0695
     12 C         142.2785  140.1627  168.5902 C.3     1  UNL1        0.0725
     13 C         141.8242  139.5068  169.8605 C.3     1  UNL1        0.0187
     14 C         140.7342  140.1323  170.6793 C.3     1  UNL1        0.0183
     15 N         142.0377  142.0618  171.8314 N.3     1  UNL1       -0.3211
     16 C         140.8327  141.5734  171.0835 C.3     1  UNL1        0.0652
     17 H         141.9378  143.0586  172.0234 H       1  UNL1        0.1189
     18 H         142.8737  141.9062  171.2681 H       1  UNL1        0.1189
     19 C         141.1691  142.1927  167.4079 C.3     1  UNL1        0.0886
     20 C         141.3281  142.7591  166.0280 C.3     1  UNL1        0.0764
     21 C         140.2484  143.6192  165.4412 C.3     1  UNL1        0.0626
     22 C         140.4075  144.1855  164.0613 C.ar    1  UNL1        0.0577
     23 N         139.3277  145.0457  163.4746 N.ar    1  UNL1       -0.2484
     24 C         139.4868  145.6119  162.0948 C.ar    1  UNL1        0.0984
     25 C         140.7256  145.3180  161.3017 C.ar    1  UNL1        0.0204
     26 C         141.8053  144.4579  161.8884 C.ar    1  UNL1       -0.0002
     27 C         141.6463  143.8916  163.2682 C.ar    1  UNL1        0.0073
     28 C         142.7260  143.0314  163.8551 C.3     1  UNL1        0.0968
     29 N         142.5669  142.4652  165.2349 N.3     1  UNL1       -0.2934
     30 H         143.3561  142.8042  165.7851 H       1  UNL1        0.1236
@<TRIPOS>BOND
     1    15    16    1
     2    16    14    1
     3    14    13    1
     4    13    12    1
     5    12     1    1
     6     1    19    1
     7    20    19    1
     8    20    21    1
     9    21    22    1
    10    22    23   ar
    11    23    24   ar
    12    24    25   ar
    13    25    26   ar
    14    26    27   ar
    15    27    28    1
    16    28    29    1
    17     2     1    1
    18     2     3    1
    19     3     4    1
    20     4     5    1
    21     5     6    1
    22     6     7   ar
    23     7     8   ar
    24     8     9   ar
    25     9    10   ar
    26    10    11   ar
    27    29    20    1
    28    11     2    1
    29    27    22   ar
    30    11     6   ar
    31    15    17    1
    32    15    18    1
    33    29    30    1
@<TRIPOS>MOLECULE
*****
 30 33 0 0 0
SMALL
GASTEIGER

@<TRIPOS>ATOM
      1 N         138.6846  140.2395  163.6295 N.3     1  UNL1       -0.2679
      2 C         138.8644  141.6960  163.9397 C.3     1  UNL1        0.0978
      3 C         137.6831  142.5290  164.3402 C.3     1  UNL1        0.0224
      4 C         137.8630  143.9855  164.6504 C.3     1  UNL1        0.0065
      5 C         139.2242  144.6090  164.5601 C.3     1  UNL1        0.0277
      6 C         140.4056  143.7760  164.1596 C.ar    1  UNL1       -0.0073
      7 C         141.7669  144.3995  164.0693 C.ar    1  UNL1       -0.0015
      8 C         142.9483  143.5665  163.6688 C.ar    1  UNL1        0.0203
      9 C         142.7684  142.1100  163.3586 C.ar    1  UNL1        0.0985
     10 N         141.4071  141.4865  163.4489 N.ar    1  UNL1       -0.2471
     11 C         140.2257  142.3195  163.8494 C.ar    1  UNL1        0.0695
     12 C         138.4267  139.7993  162.2189 C.3     1  UNL1        0.0725
     13 C         138.9007  138.4541  161.7545 C.3     1  UNL1        0.0187
     14 C         140.2946  138.2919  161.2245 C.3     1  UNL1        0.0183
     15 N         141.1561  136.8653  163.2177 N.3     1  UNL1       -0.3211
     16 C         141.4053  137.8863  162.1473 C.3     1  UNL1        0.0652
     17 H         142.0142  136.7115  163.7473 H       1  UNL1        0.1189
     18 H         140.8594  135.9887  162.7889 H       1  UNL1        0.1189
     19 C         138.7625  139.2231  164.7299 C.3     1  UNL1        0.0886
     20 C         139.7337  139.4115  165.8575 C.3     1  UNL1        0.0764
     21 C         139.2408  139.8386  167.2083 C.3     1  UNL1        0.0626
     22 C         140.2120  140.0270  168.3359 C.ar    1  UNL1        0.0577
     23 N         139.7191  140.4540  169.6867 N.ar    1  UNL1       -0.2484
     24 C         140.6903  140.6424  170.8143 C.ar    1  UNL1        0.0984
     25 C         142.1542  140.4037  170.5910 C.ar    1  UNL1        0.0204
     26 C         142.6471  139.9766  169.2402 C.ar    1  UNL1       -0.0002
     27 C         141.6759  139.7883  168.1127 C.ar    1  UNL1        0.0073
     28 C         142.1688  139.3612  166.7618 C.3     1  UNL1        0.0968
     29 N         141.1976  139.1728  165.6342 N.3     1  UNL1       -0.2934
     30 H         141.2941  138.2070  165.3209 H       1  UNL1        0.1236
@<TRIPOS>BOND
     1    15    16    1
     2    16    14    1
     3    14    13    1
     4    13    12    1
     5    12     1    1
     6     1    19    1
     7    20    19    1
     8    20    21    1
     9    21    22    1
    10    22    23   ar
    11    23    24   ar
    12    24    25   ar
    13    25    26   ar
    14    26    27   ar
    15    27    28    1
    16    28    29    1
    17     2     1    1
    18     2     3    1
    19     3     4    1
    20     4     5    1
    21     5     6    1
    22     6     7   ar
    23     7     8   ar
    24     8     9   ar
    25     9    10   ar
    26    10    11   ar
    27    29    20    1
    28    11     2    1
    29    27    22   ar
    30    11     6   ar
    31    15    17    1
    32    15    18    1
    33    29    30    1
@<TRIPOS>MOLECULE
*****
 30 33 0 0 0
SMALL
GASTEIGER

@<TRIPOS>ATOM
      1 N         141.1862  140.9702  167.1095 N.3     1  UNL1       -0.2679
      2 C         140.3515  139.8920  166.4844 C.3     1  UNL1        0.0978
      3 C         139.0158  139.5428  167.0708 C.3     1  UNL1        0.0224
      4 C         138.1810  138.4646  166.4457 C.3     1  UNL1        0.0065
      5 C         138.6819  137.7357  165.2342 C.3     1  UNL1        0.0277
      6 C         140.0177  138.0849  164.6479 C.ar    1  UNL1       -0.0073
      7 C         140.5187  137.3560  163.4364 C.ar    1  UNL1       -0.0015
      8 C         141.8544  137.7052  162.8500 C.ar    1  UNL1        0.0203
      9 C         142.6892  138.7834  163.4751 C.ar    1  UNL1        0.0985
     10 N         142.1882  139.5123  164.6865 N.ar    1  UNL1       -0.2471
     11 C         140.8524  139.1631  165.2730 C.ar    1  UNL1        0.0695
     12 C         142.5516  140.6485  167.6407 C.3     1  UNL1        0.0725
     13 C         142.7506  140.4218  169.1101 C.3     1  UNL1        0.0187
     14 C         141.8599  139.4676  169.8491 C.3     1  UNL1        0.0183
     15 N         140.6768  140.5673  171.8841 N.3     1  UNL1       -0.3211
     16 C         140.6101  139.9678  170.5107 C.3     1  UNL1        0.0652
     17 H         139.7420  140.8516  172.1768 H       1  UNL1        0.1189
     18 H         141.2910  141.3816  171.8702 H       1  UNL1        0.1189
     19 C         140.6556  142.3700  167.2034 C.3     1  UNL1        0.0886
     20 C         140.3867  143.1556  165.9542 C.3     1  UNL1        0.0764
     21 C         141.3204  143.0484  164.7852 C.3     1  UNL1        0.0626
     22 C         141.0515  143.8340  163.5359 C.ar    1  UNL1        0.0577
     23 N         141.9853  143.7268  162.3669 N.ar    1  UNL1       -0.2484
     24 C         141.7163  144.5123  161.1178 C.ar    1  UNL1        0.0984
     25 C         140.5136  145.4050  161.0375 C.ar    1  UNL1        0.0204
     26 C         139.5798  145.5122  162.2065 C.ar    1  UNL1       -0.0002
     27 C         139.8488  144.7267  163.4557 C.ar    1  UNL1        0.0073
     28 C         138.9150  144.8339  164.6248 C.3     1  UNL1        0.0968
     29 N         139.1839  144.0483  165.8739 N.3     1  UNL1       -0.2934
     30 H         138.3676  143.4574  166.0317 H       1  UNL1        0.1236
@<TRIPOS>BOND
     1    15    16    1
     2    16    14    1
     3    14    13    1
     4    13    12    1
     5    12     1    1
     6     1    19    1
     7    20    19    1
     8    20    21    1
     9    21    22    1
    10    22    23   ar
    11    23    24   ar
    12    24    25   ar
    13    25    26   ar
    14    26    27   ar
    15    27    28    1
    16    28    29    1
    17     2     1    1
    18     2     3    1
    19     3     4    1
    20     4     5    1
    21     5     6    1
    22     6     7   ar
    23     7     8   ar
    24     8     9   ar
    25     9    10   ar
    26    10    11   ar
    27    29    20    1
    28    11     2    1
    29    27    22   ar
    30    11     6   ar
    31    15    17    1
    32    15    18    1
    33    29    30    1
@<TRIPOS>MOLECULE
*****
 30 33 0 0 0
SMALL
GASTEIGER

@<TRIPOS>ATOM
      1 N         141.4736  140.3018  163.1901 N.3     1  UNL1       -0.2679
      2 C         141.5875  141.7704  163.4730 C.3     1  UNL1        0.0978
      3 C         142.9170  142.4554  163.3585 C.3     1  UNL1        0.0224
      4 C         143.0309  143.9241  163.6415 C.3     1  UNL1        0.0065
      5 C         141.8153  144.7077  164.0390 C.3     1  UNL1        0.0277
      6 C         140.4858  144.0228  164.1536 C.ar    1  UNL1       -0.0073
      7 C         139.2701  144.8064  164.5512 C.ar    1  UNL1       -0.0015
      8 C         137.9406  144.1214  164.6657 C.ar    1  UNL1        0.0203
      9 C         137.8267  142.6528  164.3827 C.ar    1  UNL1        0.0985
     10 N         139.0423  141.8691  163.9852 N.ar    1  UNL1       -0.2471
     11 C         140.3719  142.5541  163.8706 C.ar    1  UNL1        0.0695
     12 C         141.0551  139.8305  161.8289 C.3     1  UNL1        0.0725
     13 C         140.6263  138.4073  161.6270 C.3     1  UNL1        0.0187
     14 C         139.1676  138.0687  161.5393 C.3     1  UNL1        0.0183
     15 N         137.3944  139.9199  161.9625 N.3     1  UNL1       -0.3211
     16 C         138.1852  138.7425  162.4508 C.3     1  UNL1        0.0652
     17 H         136.7806  140.2497  162.7074 H       1  UNL1        0.1189
     18 H         136.8332  139.6422  161.1574 H       1  UNL1        0.1189
     19 C         141.7783  139.3044  164.2682 C.3     1  UNL1        0.0886
     20 C         141.3281  139.5606  165.6759 C.3     1  UNL1        0.0764
     21 C         142.3417  139.7260  166.7692 C.3     1  UNL1        0.0626
     22 C         141.8915  139.9822  168.1769 C.ar    1  UNL1        0.0577
     23 N         142.9051  140.1476  169.2701 N.ar    1  UNL1       -0.2484
     24 C         142.4549  140.4038  170.6778 C.ar    1  UNL1        0.0984
     25 C         140.9911  140.4947  170.9923 C.ar    1  UNL1        0.0204
     26 C         139.9774  140.3293  169.8991 C.ar    1  UNL1       -0.0002
     27 C         140.4277  140.0731  168.4914 C.ar    1  UNL1        0.0073
     28 C         139.4140  139.9077  167.3981 C.3     1  UNL1        0.0968
     29 N         139.8642  139.6515  165.9904 N.3     1  UNL1       -0.2934
     30 H         139.4865  140.4068  165.4184 H       1  UNL1        0.1236
@<TRIPOS>BOND
     1    15    16    1
     2    16    14    1
     3    14    13    1
     4    13    12    1
     5    12     1    1
     6     1    19    1
     7    20    19    1
     8    20    21    1
     9    21    22    1
    10    22    23   ar
    11    23    24   ar
    12    24    25   ar
    13    25    26   ar
    14    26    27   ar
    15    27    28    1
    16    28    29    1
    17     2     1    1
    18     2     3    1
    19     3     4    1
    20     4     5    1
    21     5     6    1
    22     6     7   ar
    23     7     8   ar
    24     8     9   ar
    25     9    10   ar
    26    10    11   ar
    27    29    20    1
    28    11     2    1
    29    27    22   ar
    30    11     6   ar
    31    15    17    1
    32    15    18    1
    33    29    30    1
@<TRIPOS>MOLECULE
*****
 30 33 0 0 0
SMALL
GASTEIGER

@<TRIPOS>ATOM
      1 N         141.8065  142.0077  167.0858 N.3     1  UNL1       -0.2679
      2 C         140.5958  141.4120  166.4304 C.3     1  UNL1        0.0978
      3 C         140.2719  139.9612  166.6310 C.3     1  UNL1        0.0224
      4 C         139.0612  139.3655  165.9756 C.3     1  UNL1        0.0065
      5 C         138.1746  140.2205  165.1197 C.3     1  UNL1        0.0277
      6 C         138.4986  141.6713  164.9191 C.ar    1  UNL1       -0.0073
      7 C         137.6119  142.5264  164.0631 C.ar    1  UNL1       -0.0015
      8 C         137.9358  143.9772  163.8625 C.ar    1  UNL1        0.0203
      9 C         139.1465  144.5729  164.5179 C.ar    1  UNL1        0.0985
     10 N         140.0331  143.7179  165.3738 N.ar    1  UNL1       -0.2471
     11 C         139.7092  142.2670  165.5745 C.ar    1  UNL1        0.0695
     12 C         141.7405  142.4577  168.5151 C.3     1  UNL1        0.0725
     13 C         140.4864  143.0863  169.0465 C.3     1  UNL1        0.0187
     14 C         139.9769  142.7102  170.4062 C.3     1  UNL1        0.0183
     15 N         140.5937  140.5542  171.7181 N.3     1  UNL1       -0.3211
     16 C         140.8713  141.9862  171.3684 C.3     1  UNL1        0.0652
     17 H         141.2956  140.2237  172.3803 H       1  UNL1        0.1189
     18 H         140.6291  139.9847  170.8726 H       1  UNL1        0.1189
     19 C         143.0830  142.1534  166.3118 C.3     1  UNL1        0.0886
     20 C         143.1286  141.7724  164.8617 C.3     1  UNL1        0.0764
     21 C         143.5121  140.3777  164.4644 C.3     1  UNL1        0.0626
     22 C         143.5577  139.9967  163.0143 C.ar    1  UNL1        0.0577
     23 N         143.9412  138.6020  162.6170 N.ar    1  UNL1       -0.2484
     24 C         143.9867  138.2210  161.1669 C.ar    1  UNL1        0.0984
     25 C         143.6488  139.2347  160.1141 C.ar    1  UNL1        0.0204
     26 C         143.2653  140.6293  160.5114 C.ar    1  UNL1       -0.0002
     27 C         143.2197  141.0103  161.9615 C.ar    1  UNL1        0.0073
     28 C         142.8362  142.4050  162.3588 C.3     1  UNL1        0.0968
     29 N         142.7907  142.7860  163.8089 N.3     1  UNL1       -0.2934
     30 H         141.8404  143.1036  164.0002 H       1  UNL1        0.1236
@<TRIPOS>BOND
     1    15    16    1
     2    16    14    1
     3    14    13    1
     4    13    12    1
     5    12     1    1
     6     1    19    1
     7    20    19    1
     8    20    21    1
     9    21    22    1
    10    22    23   ar
    11    23    24   ar
    12    24    25   ar
    13    25    26   ar
    14    26    27   ar
    15    27    28    1
    16    28    29    1
    17     2     1    1
    18     2     3    1
    19     3     4    1
    20     4     5    1
    21     5     6    1
    22     6     7   ar
    23     7     8   ar
    24     8     9   ar
    25     9    10   ar
    26    10    11   ar
    27    29    20    1
    28    11     2    1
    29    27    22   ar
    30    11     6   ar
    31    15    17    1
    32    15    18    1
    33    29    30    1
@<TRIPOS>MOLECULE
*****
 30 33 0 0 0
SMALL
GASTEIGER

@<TRIPOS>ATOM
      1 N         140.4772  139.2116  163.3153 N.3     1  UNL1       -0.2679
      2 C         139.7343  140.1596  162.4212 C.3     1  UNL1        0.0978
      3 C         139.5507  139.8326  160.9689 C.3     1  UNL1        0.0224
      4 C         138.8078  140.7806  160.0748 C.3     1  UNL1        0.0065
      5 C         138.2486  142.0556  160.6330 C.3     1  UNL1        0.0277
      6 C         138.4323  142.3826  162.0853 C.ar    1  UNL1       -0.0073
      7 C         137.8731  143.6577  162.6436 C.ar    1  UNL1       -0.0015
      8 C         138.0568  143.9846  164.0959 C.ar    1  UNL1        0.0203
      9 C         138.7996  143.0366  164.9900 C.ar    1  UNL1        0.0985
     10 N         139.3588  141.7616  164.4318 N.ar    1  UNL1       -0.2471
     11 C         139.1752  141.4346  162.9794 C.ar    1  UNL1        0.0695
     12 C         139.7896  137.9906  163.8503 C.3     1  UNL1        0.0725
     13 C         138.5903  138.1344  164.7398 C.3     1  UNL1        0.0187
     14 C         138.7249  138.7965  166.0790 C.3     1  UNL1        0.0183
     15 N         137.0008  137.3002  167.3196 N.3     1  UNL1       -0.3211
     16 C         137.6427  138.6390  167.1056 C.3     1  UNL1        0.0652
     17 H         136.2917  137.3758  168.0489 H       1  UNL1        0.1189
     18 H         137.7102  136.6246  167.6037 H       1  UNL1        0.1189
     19 C         141.9078  139.4846  163.6744 C.3     1  UNL1        0.0886
     20 C         142.2369  140.2061  164.9477 C.3     1  UNL1        0.0764
     21 C         142.3066  139.4503  166.2415 C.3     1  UNL1        0.0626
     22 C         142.6358  140.1718  167.5148 C.ar    1  UNL1        0.0577
     23 N         142.7055  139.4161  168.8085 N.ar    1  UNL1       -0.2484
     24 C         143.0346  140.1376  170.0817 C.ar    1  UNL1        0.0984
     25 C         143.2940  141.6148  170.0611 C.ar    1  UNL1        0.0204
     26 C         143.2243  142.3706  168.7674 C.ar    1  UNL1       -0.0002
     27 C         142.8951  141.6491  167.4942 C.ar    1  UNL1        0.0073
     28 C         142.8254  142.4048  166.2003 C.3     1  UNL1        0.0968
     29 N         142.4963  141.6833  164.9271 N.3     1  UNL1       -0.2934
     30 H         143.2791  141.8360  164.2913 H       1  UNL1        0.1236
@<TRIPOS>BOND
     1    15    16    1
     2    16    14    1
     3    14    13    1
     4    13    12    1
     5    12     1    1
     6     1    19    1
     7    20    19    1
     8    20    21    1
     9    21    22    1
    10    22    23   ar
    11    23    24   ar
    12    24    25   ar
    13    25    26   ar
    14    26    27   ar
    15    27    28    1
    16    28    29    1
    17     2     1    1
    18     2     3    1
    19     3     4    1
    20     4     5    1
    21     5     6    1
    22     6     7   ar
    23     7     8   ar
    24     8     9   ar
    25     9    10   ar
    26    10    11   ar
    27    29    20    1
    28    11     2    1
    29    27    22   ar
    30    11     6   ar
    31    15    17    1
    32    15    18    1
    33    29    30    1
@<TRIPOS>MOLECULE
*****
 30 33 0 0 0
SMALL
GASTEIGER

@<TRIPOS>ATOM
      1 N         139.3972  140.0939  166.8512 N.3     1  UNL1       -0.2679
      2 C         140.3938  140.9986  166.1890 C.3     1  UNL1        0.0978
      3 C         140.0625  142.4447  165.9672 C.3     1  UNL1        0.0224
      4 C         141.0591  143.3493  165.3051 C.3     1  UNL1        0.0065
      5 C         142.3868  142.8080  164.8647 C.3     1  UNL1        0.0277
      6 C         142.7181  141.3620  165.0866 C.ar    1  UNL1       -0.0073
      7 C         144.0459  140.8206  164.6462 C.ar    1  UNL1       -0.0015
      8 C         144.3771  139.3745  164.8680 C.ar    1  UNL1        0.0203
      9 C         143.3806  138.4699  165.5302 C.ar    1  UNL1        0.0985
     10 N         142.0528  139.0112  165.9705 N.ar    1  UNL1       -0.2471
     11 C         141.7215  140.4573  165.7487 C.ar    1  UNL1        0.0695
     12 C         139.3684  139.9765  168.3463 C.3     1  UNL1        0.0725
     13 C         140.5061  140.5139  169.1629 C.3     1  UNL1        0.0187
     14 C         141.6616  139.6250  169.5158 C.3     1  UNL1        0.0183
     15 N         142.1944  140.7356  171.8033 N.3     1  UNL1       -0.3211
     16 C         142.6602  140.0660  170.5444 C.3     1  UNL1        0.0652
     17 H         143.0006  140.9660  172.3842 H       1  UNL1        0.1189
     18 H         141.5759  140.1060  172.3145 H       1  UNL1        0.1189
     19 C         138.4295  139.3067  166.0183 C.3     1  UNL1        0.0886
     20 C         138.7069  139.0774  164.5620 C.3     1  UNL1        0.0764
     21 C         138.1201  139.9972  163.5328 C.3     1  UNL1        0.0626
     22 C         138.3975  139.7679  162.0766 C.ar    1  UNL1        0.0577
     23 N         137.8107  140.6878  161.0473 N.ar    1  UNL1       -0.2484
     24 C         138.0882  140.4584  159.5912 C.ar    1  UNL1        0.0984
     25 C         138.9524  139.3091  159.1643 C.ar    1  UNL1        0.0204
     26 C         139.5392  138.3892  160.1936 C.ar    1  UNL1       -0.0002
     27 C         139.2618  138.6186  161.6497 C.ar    1  UNL1        0.0073
     28 C         139.8486  137.6987  162.6790 C.3     1  UNL1        0.0968
     29 N         139.5712  137.9281  164.1352 N.3     1  UNL1       -0.2934
     30 H         140.4750  138.0542  164.5908 H       1  UNL1        0.1236
@<TRIPOS>BOND
     1    15    16    1
     2    16    14    1
     3    14    13    1
     4    13    12    1
     5    12     1    1
     6     1    19    1
     7    20    19    1
     8    20    21    1
     9    21    22    1
    10    22    23   ar
    11    23    24   ar
    12    24    25   ar
    13    25    26   ar
    14    26    27   ar
    15    27    28    1
    16    28    29    1
    17     2     1    1
    18     2     3    1
    19     3     4    1
    20     4     5    1
    21     5     6    1
    22     6     7   ar
    23     7     8   ar
    24     8     9   ar
    25     9    10   ar
    26    10    11   ar
    27    29    20    1
    28    11     2    1
    29    27    22   ar
    30    11     6   ar
    31    15    17    1
    32    15    18    1
    33    29    30    1
@<TRIPOS>MOLECULE
*****
 30 33 0 0 0
SMALL
GASTEIGER

@<TRIPOS>ATOM
      1 N         142.1343  143.6890  163.5697 N.3     1  UNL1       -0.2679
      2 C         140.6809  143.5349  163.9072 C.3     1  UNL1        0.0978
      3 C         139.9214  144.6866  164.4958 C.3     1  UNL1        0.0224
      4 C         138.4680  144.5325  164.8334 C.3     1  UNL1        0.0065
      5 C         137.7741  143.2266  164.5823 C.3     1  UNL1        0.0277
      6 C         138.5337  142.0748  163.9936 C.ar    1  UNL1       -0.0073
      7 C         137.8398  140.7688  163.7425 C.ar    1  UNL1       -0.0015
      8 C         138.5993  139.6171  163.1539 C.ar    1  UNL1        0.0203
      9 C         140.0527  139.7712  162.8163 C.ar    1  UNL1        0.0985
     10 N         140.7465  141.0771  163.0674 N.ar    1  UNL1       -0.2471
     11 C         139.9870  142.2290  163.6561 C.ar    1  UNL1        0.0695
     12 C         142.5456  144.0533  162.1739 C.3     1  UNL1        0.0725
     13 C         143.1636  143.0193  161.2801 C.3     1  UNL1        0.0187
     14 C         144.6286  142.7155  161.3858 C.3     1  UNL1        0.0183
     15 N         146.2115  141.8126  163.2376 N.3     1  UNL1       -0.3211
     16 C         145.1000  141.5881  162.2557 C.3     1  UNL1        0.0652
     17 H         146.4010  140.9457  163.7407 H       1  UNL1        0.1189
     18 H         145.9381  142.5378  163.9008 H       1  UNL1        0.1189
     19 C         143.1764  143.4789  164.6279 C.3     1  UNL1        0.0886
     20 C         143.0352  142.3503  165.6059 C.3     1  UNL1        0.0764
     21 C         142.9082  142.6400  167.0721 C.3     1  UNL1        0.0626
     22 C         142.7671  141.5115  168.0502 C.ar    1  UNL1        0.0577
     23 N         142.6401  141.8012  169.5164 N.ar    1  UNL1       -0.2484
     24 C         142.4989  140.6726  170.4944 C.ar    1  UNL1        0.0984
     25 C         142.4848  139.2544  170.0061 C.ar    1  UNL1        0.0204
     26 C         142.6118  138.9647  168.5399 C.ar    1  UNL1       -0.0002
     27 C         142.7530  140.0932  167.5619 C.ar    1  UNL1        0.0073
     28 C         142.8800  139.8036  166.0956 C.3     1  UNL1        0.0968
     29 N         143.0211  140.9321  165.1176 N.3     1  UNL1       -0.2934
     30 H         142.2426  140.8537  164.4632 H       1  UNL1        0.1236
@<TRIPOS>BOND
     1    15    16    1
     2    16    14    1
     3    14    13    1
     4    13    12    1
     5    12     1    1
     6     1    19    1
     7    20    19    1
     8    20    21    1
     9    21    22    1
    10    22    23   ar
    11    23    24   ar
    12    24    25   ar
    13    25    26   ar
    14    26    27   ar
    15    27    28    1
    16    28    29    1
    17     2     1    1
    18     2     3    1
    19     3     4    1
    20     4     5    1
    21     5     6    1
    22     6     7   ar
    23     7     8   ar
    24     8     9   ar
    25     9    10   ar
    26    10    11   ar
    27    29    20    1
    28    11     2    1
    29    27    22   ar
    30    11     6   ar
    31    15    17    1
    32    15    18    1
    33    29    30    1
@<TRIPOS>MOLECULE
*****
 30 33 0 0 0
SMALL
GASTEIGER

@<TRIPOS>ATOM
      1 N         141.5462  141.3999  167.4906 N.3     1  UNL1       -0.2679
      2 C         142.5241  140.6359  166.6480 C.3     1  UNL1        0.0978
      3 C         142.7544  139.1760  166.9037 C.3     1  UNL1        0.0224
      4 C         143.7323  138.4120  166.0611 C.3     1  UNL1        0.0065
      5 C         144.4800  139.1080  164.9627 C.3     1  UNL1        0.0277
      6 C         144.2498  140.5680  164.7070 C.ar    1  UNL1       -0.0073
      7 C         144.9975  141.2641  163.6086 C.ar    1  UNL1       -0.0015
      8 C         144.7673  142.7240  163.3529 C.ar    1  UNL1        0.0203
      9 C         143.7894  143.4880  164.1955 C.ar    1  UNL1        0.0985
     10 N         143.0417  142.7920  165.2938 N.ar    1  UNL1       -0.2471
     11 C         143.2719  141.3319  165.5496 C.ar    1  UNL1        0.0695
     12 C         142.0292  142.1870  168.6726 C.3     1  UNL1        0.0725
     13 C         141.0460  142.9105  169.5443 C.3     1  UNL1        0.0187
     14 C         140.2438  142.1520  170.5598 C.3     1  UNL1        0.0183
     15 N         139.8680  139.6583  171.1846 N.3     1  UNL1       -0.3211
     16 C         140.7647  140.8587  171.1129 C.3     1  UNL1        0.0652
     17 H         140.3823  138.8731  171.5838 H       1  UNL1        0.1189
     18 H         139.5501  139.4148  170.2465 H       1  UNL1        0.1189
     19 C         140.0853  141.3768  167.1512 C.3     1  UNL1        0.0886
     20 C         139.6483  141.3932  165.7163 C.3     1  UNL1        0.0764
     21 C         139.1380  140.1379  165.0733 C.3     1  UNL1        0.0626
     22 C         138.7010  140.1543  163.6384 C.ar    1  UNL1        0.0577
     23 N         138.1906  138.8990  162.9954 N.ar    1  UNL1       -0.2484
     24 C         137.7536  138.9155  161.5606 C.ar    1  UNL1        0.0984
     25 C         137.8270  140.1874  160.7688 C.ar    1  UNL1        0.0204
     26 C         138.3373  141.4428  161.4119 C.ar    1  UNL1       -0.0002
     27 C         138.7743  141.4262  162.8467 C.ar    1  UNL1        0.0073
     28 C         139.2846  142.6817  163.4898 C.3     1  UNL1        0.0968
     29 N         139.7216  142.6651  164.9246 N.3     1  UNL1       -0.2934
     30 H         139.1476  143.3509  165.4151 H       1  UNL1        0.1236
@<TRIPOS>BOND
     1    15    16    1
     2    16    14    1
     3    14    13    1
     4    13    12    1
     5    12     1    1
     6     1    19    1
     7    20    19    1
     8    20    21    1
     9    21    22    1
    10    22    23   ar
    11    23    24   ar
    12    24    25   ar
    13    25    26   ar
    14    26    27   ar
    15    27    28    1
    16    28    29    1
    17     2     1    1
    18     2     3    1
    19     3     4    1
    20     4     5    1
    21     5     6    1
    22     6     7   ar
    23     7     8   ar
    24     8     9   ar
    25     9    10   ar
    26    10    11   ar
    27    29    20    1
    28    11     2    1
    29    27    22   ar
    30    11     6   ar
    31    15    17    1
    32    15    18    1
    33    29    30    1
