@<TRIPOS>MOLECULE
*****
 30 33 0 0 0
SMALL
GASTEIGER

@<TRIPOS>ATOM
      1 N         140.1319  139.5583  165.2906 N.3     1  UNL1       -0.2727
      2 C         140.2369  138.7097  164.0581 C.3     1  UNL1        0.0613
      3 C         139.2094  137.6213  164.1557 C.3     1  UNL1        0.0175
      4 C         138.4693  137.7972  165.4485 C.3     1  UNL1        0.0175
      5 C         139.0395  138.9943  166.1499 C.3     1  UNL1        0.0613
      6 C         139.7950  140.2159  166.6147 C.3     1  UNL1        0.0595
      7 C         140.8560  140.6643  165.6538 C.3     1  UNL1        0.1686
      8 C         141.0769  139.9113  164.3755 C.3     1  UNL1        0.0595
      9 C         140.9719  140.7598  165.6080 C.3     1  UNL1        0.0802
     10 C         142.2175  140.6083  166.4299 C.3     1  UNL1        0.0222
     11 C         141.1626  144.3377  163.9016 C.ar    1  UNL1        0.1385
     12 C         139.7550  144.8191  164.0943 C.ar    1  UNL1        0.0369
     13 C         138.7531  143.9474  164.7916 C.ar    1  UNL1        0.0028
     14 C         139.1587  142.5943  165.2962 C.ar    1  UNL1       -0.0028
     15 C         140.5663  142.1129  165.1034 C.ar    1  UNL1       -0.0048
     16 C         141.5682  142.9847  164.4061 C.ar    1  UNL1        0.0339
     17 C         143.6054  145.1766  163.6200 C.3     1  UNL1        0.2525
     18 O         142.1645  145.2095  163.2042 O.3     1  UNL1       -0.4714
     19 O         141.6959  141.8659  165.9713 O.3     1  UNL1       -0.4791
     20 C         141.9432  142.2521  167.3995 C.ar    1  UNL1        0.1385
     21 C         143.2955  142.0361  168.0115 C.ar    1  UNL1        0.0369
     22 C         143.5427  142.4222  169.4396 C.ar    1  UNL1        0.0033
     23 C         142.4376  143.0243  170.2558 C.ar    1  UNL1        0.0047
     24 C         141.0853  143.2402  169.6439 C.ar    1  UNL1        0.0561
     25 C         140.8381  142.8541  168.2156 C.ar    1  UNL1        0.0414
     26 C         139.9802  143.8422  170.4601 C.2     1  UNL1        0.2428
     27 N         138.9904  142.9538  171.1537 N.am    1  UNL1       -0.3253
     28 O         139.8648  145.3328  170.5828 O.2     1  UNL1       -0.2704
     29 H         139.0661  141.9755  171.0731 H       1  UNL1        0.1453
     30 H         138.2651  143.3489  171.6894 H       1  UNL1        0.1453
@<TRIPOS>BOND
     1    17    18    1
     2    18    11    1
     3    11    12   ar
     4    12    13   ar
     5    13    14   ar
     6    14    15   ar
     7    15     9    1
     8     9    10    1
     9     9     1    1
    10     1     2    1
    11     2     3    1
    12     3     4    1
    13     5     4    1
    14     5     6    1
    15     6     7    1
    16     7    19    1
    17    19    20    1
    18    20    21   ar
    19    21    22   ar
    20    22    23   ar
    21    23    24   ar
    22    24    26    1
    23    26    27   am
    24    26    28    2
    25    24    25   ar
    26     7     8    1
    27    15    16   ar
    28    16    11   ar
    29     5     1    1
    30    25    20   ar
    31     8     2    1
    32    27    29    1
    33    27    30    1
@<TRIPOS>MOLECULE
*****
 30 33 0 0 0
SMALL
GASTEIGER

@<TRIPOS>ATOM
      1 N         143.5497  141.8311  164.7569 N.3     1  UNL1       -0.2727
      2 C         144.7135  142.6602  164.3008 C.3     1  UNL1        0.0613
      3 C         145.7364  141.7369  163.7081 C.3     1  UNL1        0.0175
      4 C         145.2047  140.3372  163.7980 C.3     1  UNL1        0.0175
      5 C         143.8532  140.3954  164.4462 C.3     1  UNL1        0.0613
      6 C         142.5444  140.7519  165.1087 C.3     1  UNL1        0.0595
      7 C         142.3807  142.2221  165.3571 C.3     1  UNL1        0.1686
      8 C         143.4653  143.1763  164.9531 C.3     1  UNL1        0.0595
      9 C         142.3014  142.3472  165.4092 C.3     1  UNL1        0.0802
     10 C         142.2094  142.4140  166.9049 C.3     1  UNL1        0.0222
     11 C         139.3562  142.2954  162.7497 C.ar    1  UNL1        0.1385
     12 C         138.8328  143.6952  162.8790 C.ar    1  UNL1        0.0369
     13 C         139.4656  144.6456  163.8517 C.ar    1  UNL1        0.0028
     14 C         140.6218  144.1963  164.6952 C.ar    1  UNL1       -0.0028
     15 C         141.1452  142.7965  164.5658 C.ar    1  UNL1       -0.0048
     16 C         140.5124  141.8461  163.5931 C.ar    1  UNL1        0.0339
     17 C         137.8089  140.2637  162.2718 C.3     1  UNL1        0.2525
     18 O         138.7234  141.3449  161.7770 O.3     1  UNL1       -0.4714
     19 O         141.1324  142.7381  166.0094 O.3     1  UNL1       -0.4791
     20 C         140.5233  141.9915  167.1590 C.ar    1  UNL1        0.1385
     21 C         139.9182  140.6370  166.9373 C.ar    1  UNL1        0.0369
     22 C         139.3091  139.8904  168.0868 C.ar    1  UNL1        0.0033
     23 C         139.3050  140.4982  169.4581 C.ar    1  UNL1        0.0047
     24 C         139.9101  141.8528  169.6798 C.ar    1  UNL1        0.0561
     25 C         140.5192  142.5994  168.5302 C.ar    1  UNL1        0.0414
     26 C         139.9060  142.4606  171.0511 C.2     1  UNL1        0.2428
     27 N         138.8926  143.5088  171.4038 N.am    1  UNL1       -0.3253
     28 O         140.9153  142.0203  172.0697 O.2     1  UNL1       -0.2704
     29 H         138.2302  143.7978  170.7353 H       1  UNL1        0.1453
     30 H         138.8899  143.9078  172.3039 H       1  UNL1        0.1453
@<TRIPOS>BOND
     1    17    18    1
     2    18    11    1
     3    11    12   ar
     4    12    13   ar
     5    13    14   ar
     6    14    15   ar
     7    15     9    1
     8     9    10    1
     9     9     1    1
    10     1     2    1
    11     2     3    1
    12     3     4    1
    13     5     4    1
    14     5     6    1
    15     6     7    1
    16     7    19    1
    17    19    20    1
    18    20    21   ar
    19    21    22   ar
    20    22    23   ar
    21    23    24   ar
    22    24    26    1
    23    26    27   am
    24    26    28    2
    25    24    25   ar
    26     7     8    1
    27    15    16   ar
    28    16    11   ar
    29     5     1    1
    30    25    20   ar
    31     8     2    1
    32    27    29    1
    33    27    30    1
@<TRIPOS>MOLECULE
*****
 30 33 0 0 0
SMALL
GASTEIGER

@<TRIPOS>ATOM
      1 N         139.2523  139.0550  163.7344 N.3     1  UNL1       -0.2727
      2 C         138.9115  137.8091  162.9718 C.3     1  UNL1        0.0613
      3 C         138.0088  138.1926  161.8368 C.3     1  UNL1        0.0175
      4 C         137.7917  139.6755  161.8981 C.3     1  UNL1        0.0175
      5 C         138.5602  140.2085  163.0708 C.3     1  UNL1        0.0613
      6 C         139.4140  140.4561  164.2910 C.3     1  UNL1        0.0595
      7 C         140.0414  139.2111  164.8446 C.3     1  UNL1        0.1686
      8 C         139.7901  137.8876  164.1850 C.3     1  UNL1        0.0595
      9 C         140.1309  139.1335  164.9476 C.3     1  UNL1        0.0802
     10 C         139.5208  139.1175  166.3178 C.3     1  UNL1        0.0222
     11 C         143.6956  140.1824  163.5538 C.ar    1  UNL1        0.1385
     12 C         144.5972  139.4171  164.4765 C.ar    1  UNL1        0.0369
     13 C         144.0101  138.5572  165.5562 C.ar    1  UNL1        0.0028
     14 C         142.5213  138.4627  165.7133 C.ar    1  UNL1       -0.0028
     15 C         141.6196  139.2280  164.7906 C.ar    1  UNL1       -0.0048
     16 C         142.2068  140.0879  163.7108 C.ar    1  UNL1        0.0339
     17 C         145.0388  142.2868  162.8343 C.3     1  UNL1        0.2525
     18 O         144.2828  141.0423  162.4740 O.3     1  UNL1       -0.4714
     19 O         140.9200  139.2897  166.0578 O.3     1  UNL1       -0.4791
     20 C         140.7445  140.4102  167.0396 C.ar    1  UNL1        0.1385
     21 C         140.6983  141.8297  166.5572 C.ar    1  UNL1        0.0369
     22 C         140.5228  142.9501  167.5389 C.ar    1  UNL1        0.0033
     23 C         140.3935  142.6510  169.0031 C.ar    1  UNL1        0.0047
     24 C         140.4397  141.2314  169.4855 C.ar    1  UNL1        0.0561
     25 C         140.6152  140.1110  168.5037 C.ar    1  UNL1        0.0414
     26 C         140.3104  140.9323  170.9497 C.2     1  UNL1        0.2428
     27 N         139.9326  139.5532  171.4029 N.am    1  UNL1       -0.3253
     28 O         140.5590  142.0123  171.9606 O.2     1  UNL1       -0.2704
     29 H         139.7694  138.8444  170.7395 H       1  UNL1        0.1453
     30 H         139.8477  139.3569  172.3639 H       1  UNL1        0.1453
@<TRIPOS>BOND
     1    17    18    1
     2    18    11    1
     3    11    12   ar
     4    12    13   ar
     5    13    14   ar
     6    14    15   ar
     7    15     9    1
     8     9    10    1
     9     9     1    1
    10     1     2    1
    11     2     3    1
    12     3     4    1
    13     5     4    1
    14     5     6    1
    15     6     7    1
    16     7    19    1
    17    19    20    1
    18    20    21   ar
    19    21    22   ar
    20    22    23   ar
    21    23    24   ar
    22    24    26    1
    23    26    27   am
    24    26    28    2
    25    24    25   ar
    26     7     8    1
    27    15    16   ar
    28    16    11   ar
    29     5     1    1
    30    25    20   ar
    31     8     2    1
    32    27    29    1
    33    27    30    1
@<TRIPOS>MOLECULE
*****
 30 33 0 0 0
SMALL
GASTEIGER

@<TRIPOS>ATOM
      1 N         143.0784  140.7249  164.6891 N.3     1  UNL1       -0.2727
      2 C         143.9700  141.4340  163.7133 C.3     1  UNL1        0.0613
      3 C         145.2066  140.6054  163.5283 C.3     1  UNL1        0.0175
      4 C         145.0793  139.3841  164.3899 C.3     1  UNL1        0.0175
      5 C         143.7640  139.4580  165.1073 C.3     1  UNL1        0.0613
      6 C         142.4080  139.7932  165.6799 C.3     1  UNL1        0.0595
      7 C         141.8474  141.0881  165.1710 C.3     1  UNL1        0.1686
      8 C         142.6284  141.9085  164.1877 C.3     1  UNL1        0.0595
      9 C         141.7369  141.1994  165.1635 C.3     1  UNL1        0.0802
     10 C         141.6327  142.0344  166.4053 C.3     1  UNL1        0.0222
     11 C         138.3075  141.5522  163.1976 C.ar    1  UNL1        0.1385
     12 C         138.0247  140.1180  162.8612 C.ar    1  UNL1        0.0369
     13 C         138.9793  139.0443  163.2923 C.ar    1  UNL1        0.0028
     14 C         140.2167  139.4047  164.0597 C.ar    1  UNL1       -0.0028
     15 C         140.4995  140.8389  164.3961 C.ar    1  UNL1       -0.0048
     16 C         139.5448  141.9127  163.9650 C.ar    1  UNL1        0.0339
     17 C         137.6613  144.0648  163.0576 C.3     1  UNL1        0.2525
     18 O         137.3528  142.6259  162.7666 O.3     1  UNL1       -0.4714
     19 O         140.5058  141.5626  165.6454 O.3     1  UNL1       -0.4791
     20 C         140.0499  141.2503  167.0399 C.ar    1  UNL1        0.1385
     21 C         139.3287  139.9659  167.3232 C.ar    1  UNL1        0.0369
     22 C         138.8728  139.6536  168.7176 C.ar    1  UNL1        0.0033
     23 C         139.1382  140.6256  169.8289 C.ar    1  UNL1        0.0047
     24 C         139.8594  141.9099  169.5455 C.ar    1  UNL1        0.0561
     25 C         140.3152  142.2223  168.1510 C.ar    1  UNL1        0.0414
     26 C         140.1247  142.8819  170.6567 C.2     1  UNL1        0.2428
     27 N         140.0863  144.3572  170.3879 N.am    1  UNL1       -0.3253
     28 O         140.4284  142.3787  172.0369 O.2     1  UNL1       -0.2704
     29 H         139.8870  144.6875  169.4821 H       1  UNL1        0.1453
     30 H         140.2605  144.9951  171.1173 H       1  UNL1        0.1453
@<TRIPOS>BOND
     1    17    18    1
     2    18    11    1
     3    11    12   ar
     4    12    13   ar
     5    13    14   ar
     6    14    15   ar
     7    15     9    1
     8     9    10    1
     9     9     1    1
    10     1     2    1
    11     2     3    1
    12     3     4    1
    13     5     4    1
    14     5     6    1
    15     6     7    1
    16     7    19    1
    17    19    20    1
    18    20    21   ar
    19    21    22   ar
    20    22    23   ar
    21    23    24   ar
    22    24    26    1
    23    26    27   am
    24    26    28    2
    25    24    25   ar
    26     7     8    1
    27    15    16   ar
    28    16    11   ar
    29     5     1    1
    30    25    20   ar
    31     8     2    1
    32    27    29    1
    33    27    30    1
@<TRIPOS>MOLECULE
*****
 30 33 0 0 0
SMALL
GASTEIGER

@<TRIPOS>ATOM
      1 N         139.6617  139.6576  164.1315 N.3     1  UNL1       -0.2727
      2 C         138.4628  139.1865  163.3630 C.3     1  UNL1        0.0613
      3 C         138.8754  138.0016  162.5409 C.3     1  UNL1        0.0175
      4 C         140.3293  137.7404  162.8013 C.3     1  UNL1        0.0175
      5 C         140.8153  138.7638  163.7844 C.3     1  UNL1        0.0613
      6 C         141.0196  139.8950  164.7631 C.3     1  UNL1        0.0595
      7 C         139.7798  140.7017  165.0121 C.3     1  UNL1        0.1686
      8 C         138.5013  140.3474  164.3120 C.3     1  UNL1        0.0595
      9 C         139.7003  140.8185  165.0806 C.3     1  UNL1        0.0802
     10 C         139.5164  140.5910  166.5518 C.3     1  UNL1        0.0222
     11 C         141.2970  143.8756  163.1173 C.ar    1  UNL1        0.1385
     12 C         140.3673  144.9840  163.5140 C.ar    1  UNL1        0.0369
     13 C         139.2154  144.7038  164.4328 C.ar    1  UNL1        0.0028
     14 C         138.9929  143.3154  164.9551 C.ar    1  UNL1       -0.0028
     15 C         139.9226  142.2070  164.5584 C.ar    1  UNL1       -0.0048
     16 C         141.0747  142.4871  163.6395 C.ar    1  UNL1        0.0339
     17 C         143.8560  143.9402  162.6722 C.3     1  UNL1        0.2525
     18 O         142.4491  144.1558  162.1984 O.3     1  UNL1       -0.4714
     19 O         139.8184  141.8627  165.9612 O.3     1  UNL1       -0.4791
     20 C         140.7358  141.8314  167.1475 C.ar    1  UNL1        0.1385
     21 C         142.1858  142.1783  166.9837 C.ar    1  UNL1        0.0369
     22 C         143.1032  142.1470  168.1699 C.ar    1  UNL1        0.0033
     23 C         142.5705  141.7687  169.5202 C.ar    1  UNL1        0.0047
     24 C         141.1204  141.4218  169.6841 C.ar    1  UNL1        0.0561
     25 C         140.2030  141.4531  168.4977 C.ar    1  UNL1        0.0414
     26 C         140.5878  141.0435  171.0343 C.2     1  UNL1        0.2428
     27 N         140.0648  139.6580  171.2731 N.am    1  UNL1       -0.3253
     28 O         140.5780  142.0507  172.1459 O.2     1  UNL1       -0.2704
     29 H         140.0712  138.9969  170.5435 H       1  UNL1        0.1453
     30 H         139.7152  139.4097  172.1593 H       1  UNL1        0.1453
@<TRIPOS>BOND
     1    17    18    1
     2    18    11    1
     3    11    12   ar
     4    12    13   ar
     5    13    14   ar
     6    14    15   ar
     7    15     9    1
     8     9    10    1
     9     9     1    1
    10     1     2    1
    11     2     3    1
    12     3     4    1
    13     5     4    1
    14     5     6    1
    15     6     7    1
    16     7    19    1
    17    19    20    1
    18    20    21   ar
    19    21    22   ar
    20    22    23   ar
    21    23    24   ar
    22    24    26    1
    23    26    27   am
    24    26    28    2
    25    24    25   ar
    26     7     8    1
    27    15    16   ar
    28    16    11   ar
    29     5     1    1
    30    25    20   ar
    31     8     2    1
    32    27    29    1
    33    27    30    1
@<TRIPOS>MOLECULE
*****
 30 33 0 0 0
SMALL
GASTEIGER

@<TRIPOS>ATOM
      1 N         141.7309  142.3502  168.4563 N.3     1  UNL1       -0.2727
      2 C         141.5115  143.1504  169.7060 C.3     1  UNL1        0.0613
      3 C         142.8021  143.1807  170.4697 C.3     1  UNL1        0.0175
      4 C         143.8193  142.3992  169.6920 C.3     1  UNL1        0.0175
      5 C         143.1572  141.8860  168.4476 C.3     1  UNL1        0.0613
      6 C         142.2466  141.5112  167.3034 C.3     1  UNL1        0.0595
      7 C         140.8524  142.0451  167.4491 C.3     1  UNL1        0.1686
      8 C         140.4848  142.8647  168.6504 C.3     1  UNL1        0.0595
      9 C         140.7042  142.0645  167.4007 C.3     1  UNL1        0.0802
     10 C         139.8340  140.8477  167.5107 C.3     1  UNL1        0.0222
     11 C         141.5057  144.0797  164.0771 C.ar    1  UNL1        0.1385
     12 C         140.2350  144.8579  163.9039 C.ar    1  UNL1        0.0369
     13 C         139.1208  144.7049  164.8963 C.ar    1  UNL1        0.0028
     14 C         139.2771  143.7738  166.0620 C.ar    1  UNL1       -0.0028
     15 C         140.5478  142.9956  166.2351 C.ar    1  UNL1       -0.0048
     16 C         141.6621  143.1486  165.2426 C.ar    1  UNL1        0.0339
     17 C         144.0458  144.0976  163.5309 C.3     1  UNL1        0.2525
     18 O         142.6200  144.2327  163.0846 O.3     1  UNL1       -0.4714
     19 O         139.8257  141.7593  166.3934 O.3     1  UNL1       -0.4791
     20 C         139.7057  140.3793  165.8179 C.ar    1  UNL1        0.1385
     21 C         138.5950  139.4749  166.2633 C.ar    1  UNL1        0.0369
     22 C         138.4750  138.0950  165.6879 C.ar    1  UNL1        0.0033
     23 C         139.4658  137.6193  164.6670 C.ar    1  UNL1        0.0047
     24 C         140.5765  138.5236  164.2217 C.ar    1  UNL1        0.0561
     25 C         140.6965  139.9037  164.7971 C.ar    1  UNL1        0.0414
     26 C         141.5673  138.0480  163.2009 C.2     1  UNL1        0.2428
     27 N         143.0254  138.3570  163.3699 N.am    1  UNL1       -0.3253
     28 O         141.1000  137.2632  162.0109 O.2     1  UNL1       -0.2704
     29 H         143.3321  138.8720  164.1509 H       1  UNL1        0.1453
     30 H         143.6757  138.0447  162.6999 H       1  UNL1        0.1453
@<TRIPOS>BOND
     1    17    18    1
     2    18    11    1
     3    11    12   ar
     4    12    13   ar
     5    13    14   ar
     6    14    15   ar
     7    15     9    1
     8     9    10    1
     9     9     1    1
    10     1     2    1
    11     2     3    1
    12     3     4    1
    13     5     4    1
    14     5     6    1
    15     6     7    1
    16     7    19    1
    17    19    20    1
    18    20    21   ar
    19    21    22   ar
    20    22    23   ar
    21    23    24   ar
    22    24    26    1
    23    26    27   am
    24    26    28    2
    25    24    25   ar
    26     7     8    1
    27    15    16   ar
    28    16    11   ar
    29     5     1    1
    30    25    20   ar
    31     8     2    1
    32    27    29    1
    33    27    30    1
@<TRIPOS>MOLECULE
*****
 30 33 0 0 0
SMALL
GASTEIGER

@<TRIPOS>ATOM
      1 N         141.6706  140.8824  168.6816 N.3     1  UNL1       -0.2727
      2 C         142.7108  140.0831  169.4090 C.3     1  UNL1        0.0613
      3 C         142.5487  140.3391  170.8781 C.3     1  UNL1        0.0175
      4 C         141.4084  141.2967  171.0586 C.3     1  UNL1        0.0175
      5 C         140.8657  141.6325  169.7011 C.3     1  UNL1        0.0613
      6 C         140.5356  141.7835  168.2357 C.3     1  UNL1        0.0595
      7 C         141.4232  140.9752  167.3364 C.3     1  UNL1        0.1686
      8 C         142.5108  140.1249  167.9230 C.3     1  UNL1        0.0595
      9 C         141.4706  140.9243  167.1956 C.3     1  UNL1        0.0802
     10 C         142.1308  141.9960  166.3798 C.3     1  UNL1        0.0222
     11 C         140.3354  137.9656  164.8065 C.ar    1  UNL1        0.1385
     12 C         138.8898  137.8344  165.1849 C.ar    1  UNL1        0.0369
     13 C         138.3046  138.7332  166.2334 C.ar    1  UNL1        0.0028
     14 C         139.1647  139.7632  166.9037 C.ar    1  UNL1       -0.0028
     15 C         140.6104  139.8943  166.5253 C.ar    1  UNL1       -0.0048
     16 C         141.1957  138.9955  165.4767 C.ar    1  UNL1        0.0339
     17 C         141.3749  137.6393  162.4478 C.3     1  UNL1        0.2525
     18 O         140.9207  137.0668  163.7578 O.3     1  UNL1       -0.4714
     19 O         141.2231  141.0171  165.8503 O.3     1  UNL1       -0.4791
     20 C         140.9252  142.3204  165.1701 C.ar    1  UNL1        0.1385
     21 C         139.7078  143.1070  165.5564 C.ar    1  UNL1        0.0369
     22 C         139.4100  144.4102  164.8763 C.ar    1  UNL1        0.0033
     23 C         140.3295  144.9270  163.8098 C.ar    1  UNL1        0.0047
     24 C         141.5469  144.1404  163.4234 C.ar    1  UNL1        0.0561
     25 C         141.8447  142.8371  164.1036 C.ar    1  UNL1        0.0414
     26 C         142.4664  144.6572  162.3569 C.2     1  UNL1        0.2428
     27 N         141.9107  145.0890  161.0322 N.am    1  UNL1       -0.3253
     28 O         143.9416  144.7421  162.6151 O.2     1  UNL1       -0.2704
     29 H         140.9425  145.0333  160.8628 H       1  UNL1        0.1453
     30 H         142.5143  145.4282  160.3323 H       1  UNL1        0.1453
@<TRIPOS>BOND
     1    17    18    1
     2    18    11    1
     3    11    12   ar
     4    12    13   ar
     5    13    14   ar
     6    14    15   ar
     7    15     9    1
     8     9    10    1
     9     9     1    1
    10     1     2    1
    11     2     3    1
    12     3     4    1
    13     5     4    1
    14     5     6    1
    15     6     7    1
    16     7    19    1
    17    19    20    1
    18    20    21   ar
    19    21    22   ar
    20    22    23   ar
    21    23    24   ar
    22    24    26    1
    23    26    27   am
    24    26    28    2
    25    24    25   ar
    26     7     8    1
    27    15    16   ar
    28    16    11   ar
    29     5     1    1
    30    25    20   ar
    31     8     2    1
    32    27    29    1
    33    27    30    1
@<TRIPOS>MOLECULE
*****
 30 33 0 0 0
SMALL
GASTEIGER

@<TRIPOS>ATOM
      1 N         140.5529  141.4652  168.4472 N.3     1  UNL1       -0.2727
      2 C         139.7279  141.0384  169.6250 C.3     1  UNL1        0.0613
      3 C         139.5802  142.2183  170.5394 C.3     1  UNL1        0.0175
      4 C         140.3139  143.3743  169.9267 C.3     1  UNL1        0.0175
      5 C         140.9150  142.9088  168.6336 C.3     1  UNL1        0.0613
      6 C         141.3924  142.1756  167.4033 C.3     1  UNL1        0.0595
      7 C         140.9539  140.7420  167.3537 C.3     1  UNL1        0.1686
      8 C         140.1216  140.1734  168.4646 C.3     1  UNL1        0.0595
      9 C         140.9466  140.6002  167.2867 C.3     1  UNL1        0.0802
     10 C         142.2889  139.9307  167.2716 C.3     1  UNL1        0.0222
     11 C         138.3421  141.3889  164.3980 C.ar    1  UNL1        0.1385
     12 C         138.1008  140.0133  163.8505 C.ar    1  UNL1        0.0369
     13 C         138.8081  138.8335  164.4484 C.ar    1  UNL1        0.0028
     14 C         139.7567  139.0290  165.5938 C.ar    1  UNL1       -0.0028
     15 C         139.9980  140.4046  166.1414 C.ar    1  UNL1       -0.0048
     16 C         139.2907  141.5845  165.5434 C.ar    1  UNL1        0.0339
     17 C         137.9493  143.9545  164.2809 C.3     1  UNL1        0.2525
     18 O         137.6348  142.5688  163.8001 O.3     1  UNL1       -0.4714
     19 O         141.3476  139.8770  166.1931 O.3     1  UNL1       -0.4791
     20 C         142.6266  140.1462  165.4570 C.ar    1  UNL1        0.1385
     21 C         143.6556  139.0634  165.3206 C.ar    1  UNL1        0.0369
     22 C         144.9344  139.3325  164.5845 C.ar    1  UNL1        0.0033
     23 C         145.1844  140.6845  163.9849 C.ar    1  UNL1        0.0047
     24 C         144.1554  141.7674  164.1214 C.ar    1  UNL1        0.0561
     25 C         142.8765  141.4982  164.8575 C.ar    1  UNL1        0.0414
     26 C         144.4054  143.1194  163.5217 C.2     1  UNL1        0.2428
     27 N         144.9421  143.2331  162.1257 N.am    1  UNL1       -0.3253
     28 O         144.1186  144.3578  164.3182 O.2     1  UNL1       -0.2704
     29 H         145.1304  142.4204  161.6029 H       1  UNL1        0.1453
     30 H         145.1062  144.1205  161.7321 H       1  UNL1        0.1453
@<TRIPOS>BOND
     1    17    18    1
     2    18    11    1
     3    11    12   ar
     4    12    13   ar
     5    13    14   ar
     6    14    15   ar
     7    15     9    1
     8     9    10    1
     9     9     1    1
    10     1     2    1
    11     2     3    1
    12     3     4    1
    13     5     4    1
    14     5     6    1
    15     6     7    1
    16     7    19    1
    17    19    20    1
    18    20    21   ar
    19    21    22   ar
    20    22    23   ar
    21    23    24   ar
    22    24    26    1
    23    26    27   am
    24    26    28    2
    25    24    25   ar
    26     7     8    1
    27    15    16   ar
    28    16    11   ar
    29     5     1    1
    30    25    20   ar
    31     8     2    1
    32    27    29    1
    33    27    30    1
@<TRIPOS>MOLECULE
*****
 30 33 0 0 0
SMALL
GASTEIGER

@<TRIPOS>ATOM
      1 N         142.3855  140.9711  168.4203 N.3     1  UNL1       -0.2727
      2 C         143.1849  141.3590  169.6288 C.3     1  UNL1        0.0613
      3 C         143.1359  140.2191  170.6025 C.3     1  UNL1        0.0175
      4 C         142.3061  139.1267  169.9958 C.3     1  UNL1        0.0175
      5 C         141.8424  139.5914  168.6471 C.3     1  UNL1        0.0613
      6 C         141.5298  140.3105  167.3570 C.3     1  UNL1        0.0595
      7 C         142.1394  141.6784  167.2720 C.3     1  UNL1        0.1686
      8 C         142.9670  142.2027  168.4079 C.3     1  UNL1        0.0595
      9 C         142.1676  141.8148  167.1993 C.3     1  UNL1        0.0802
     10 C         140.9502  142.6851  167.0966 C.3     1  UNL1        0.0222
     11 C         144.4495  140.4777  164.2404 C.ar    1  UNL1        0.1385
     12 C         145.1660  141.7348  163.8447 C.ar    1  UNL1        0.0369
     13 C         144.8829  143.0185  164.5671 C.ar    1  UNL1        0.0028
     14 C         143.8835  143.0452  165.6854 C.ar    1  UNL1       -0.0028
     15 C         143.1670  141.7881  166.0811 C.ar    1  UNL1       -0.0048
     16 C         143.4501  140.5044  165.3586 C.ar    1  UNL1        0.0339
     17 C         143.6750  138.5690  162.6571 C.3     1  UNL1        0.2525
     18 O         144.7325  139.1940  163.5179 O.3     1  UNL1       -0.4714
     19 O         141.9214  142.5221  166.0509 O.3     1  UNL1       -0.4791
     20 C         140.5658  142.5797  165.4114 C.ar    1  UNL1        0.1385
     21 C         139.7708  143.8510  165.4521 C.ar    1  UNL1        0.0369
     22 C         138.4152  143.9086  164.8125 C.ar    1  UNL1        0.0033
     23 C         137.8547  142.6949  164.1323 C.ar    1  UNL1        0.0047
     24 C         138.6497  141.4236  164.0916 C.ar    1  UNL1        0.0561
     25 C         140.0054  141.3660  164.7312 C.ar    1  UNL1        0.0414
     26 C         138.0892  140.2099  163.4114 C.2     1  UNL1        0.2428
     27 N         137.2006  140.3651  162.2129 N.am    1  UNL1       -0.3253
     28 O         138.4172  138.8410  163.9296 O.2     1  UNL1       -0.2704
     29 H         136.9853  141.2635  161.8728 H       1  UNL1        0.1453
     30 H         136.8327  139.5685  161.7665 H       1  UNL1        0.1453
@<TRIPOS>BOND
     1    17    18    1
     2    18    11    1
     3    11    12   ar
     4    12    13   ar
     5    13    14   ar
     6    14    15   ar
     7    15     9    1
     8     9    10    1
     9     9     1    1
    10     1     2    1
    11     2     3    1
    12     3     4    1
    13     5     4    1
    14     5     6    1
    15     6     7    1
    16     7    19    1
    17    19    20    1
    18    20    21   ar
    19    21    22   ar
    20    22    23   ar
    21    23    24   ar
    22    24    26    1
    23    26    27   am
    24    26    28    2
    25    24    25   ar
    26     7     8    1
    27    15    16   ar
    28    16    11   ar
    29     5     1    1
    30    25    20   ar
    31     8     2    1
    32    27    29    1
    33    27    30    1
