@<TRIPOS>MOLECULE
*****
 34 38 0 0 0
SMALL
GASTEIGER

@<TRIPOS>ATOM
      1 C         140.1684  144.1691  159.0959 C.3     1  UNL1        0.0827
      2 C         139.2735  143.0670  159.5803 C.3     1  UNL1        0.0309
      3 C         139.5764  142.3685  160.8727 C.3     1  UNL1        0.0954
      4 N         140.7740  142.7719  161.6806 N.am    1  UNL1       -0.2642
      5 C         141.0768  142.0733  162.9731 C.2     1  UNL1        0.3039
      6 O         142.2745  142.4768  163.7811 O.2     1  UNL1       -0.2526
      7 N         140.1820  140.9712  163.4575 N.am    1  UNL1       -0.2901
      8 C         141.6688  143.8740  161.1963 C.3     1  UNL1        0.0954
      9 C         141.3660  144.5726  159.9039 C.3     1  UNL1        0.0309
     10 H         139.3959  140.7064  162.9272 H       1  UNL1        0.1509
     11 C         139.5396  146.6043  156.1396 C.ar    1  UNL1        0.2033
     12 N         139.2598  145.2815  155.4901 N.ar    1  UNL1       -0.0560
     13 O         139.4612  144.2083  156.5185 O.2     1  UNL1       -0.3370
     14 C         139.8656  144.8678  157.8036 C.ar    1  UNL1        0.2362
     15 N         139.9141  146.3486  157.5694 N.ar    1  UNL1       -0.1908
     16 C         139.2983  150.6325  154.1483 C.ar    1  UNL1        0.1057
     17 C         138.6607  150.4193  155.4892 C.ar    1  UNL1        0.0184
     18 C         138.7412  149.0766  156.1529 C.ar    1  UNL1        0.0045
     19 C         139.4592  147.9471  155.4758 C.ar    1  UNL1        0.0392
     20 C         140.0968  148.1603  154.1350 C.ar    1  UNL1        0.0045
     21 C         140.0164  149.5030  153.4712 C.ar    1  UNL1        0.0184
     22 C         139.1375  153.3180  152.8208 C.3     1  UNL1        0.1816
     23 S         139.2179  151.9753  153.4846 S.O2    1  UNL1        0.0104
     24 O         138.9088  151.3100  152.1762 O.2     1  UNL1       -0.1686
     25 O         139.5270  152.6406  154.7930 O.2     1  UNL1       -0.1686
     26 C         140.4847  140.2726  164.7499 C.3     1  UNL1        0.0774
     27 C         140.9728  139.0618  165.4887 C.3     1  UNL1        0.0259
     28 C         140.5212  140.2732  166.2494 C.3     1  UNL1        0.0420
     29 C         140.2815  140.9730  167.5544 C.ar    1  UNL1       -0.0208
     30 C         140.7239  142.3947  167.7353 C.ar    1  UNL1       -0.0042
     31 C         140.4843  143.0945  169.0403 C.ar    1  UNL1       -0.0003
     32 C         139.8022  142.3725  170.1642 C.ar    1  UNL1       -0.0000
     33 C         139.3597  140.9507  169.9832 C.ar    1  UNL1       -0.0003
     34 C         139.5994  140.2510  168.6784 C.ar    1  UNL1       -0.0042
@<TRIPOS>BOND
     1    22    23    1
     2    23    24    2
     3    23    25    2
     4    23    16    1
     5    16    17   ar
     6    17    18   ar
     7    18    19   ar
     8    19    11    1
     9    11    12   ar
    10    12    13   ar
    11    13    14   ar
    12    14     1    1
    13     1     2    1
    14     2     3    1
    15     3     4    1
    16     4     5   am
    17     5     6    2
    18     5     7   am
    19     7    26    1
    20    26    27    1
    21    27    28    1
    22    28    29    1
    23    29    30   ar
    24    30    31   ar
    25    31    32   ar
    26    32    33   ar
    27    33    34   ar
    28     4     8    1
    29     8     9    1
    30    14    15   ar
    31    19    20   ar
    32    20    21   ar
    33    21    16   ar
    34    15    11   ar
    35     9     1    1
    36    28    26    1
    37    34    29   ar
    38     7    10    1
@<TRIPOS>MOLECULE
*****
 34 38 0 0 0
SMALL
GASTEIGER

@<TRIPOS>ATOM
      1 C         140.1272  144.3809  158.7293 C.3     1  UNL1        0.0827
      2 C         140.9157  145.0552  159.8127 C.3     1  UNL1        0.0309
      3 C         141.3519  144.2765  161.0182 C.3     1  UNL1        0.0954
      4 N         140.9996  142.8236  161.1404 N.am    1  UNL1       -0.2642
      5 C         141.4359  142.0449  162.3460 C.2     1  UNL1        0.3039
      6 O         141.0836  140.5920  162.4682 O.2     1  UNL1       -0.2526
      7 N         142.2244  142.7192  163.4293 N.am    1  UNL1       -0.2901
      8 C         140.2112  142.1494  160.0571 C.3     1  UNL1        0.0954
      9 C         139.7749  142.9281  158.8515 C.3     1  UNL1        0.0309
     10 H         142.4557  143.6728  163.3491 H       1  UNL1        0.1509
     11 C         139.2738  146.9889  155.9842 C.ar    1  UNL1        0.2033
     12 N         138.7653  145.7268  155.3530 N.ar    1  UNL1       -0.0560
     13 O         139.0231  144.5962  156.3045 O.2     1  UNL1       -0.3370
     14 C         139.6909  145.1596  157.5238 C.ar    1  UNL1        0.2362
     15 N         139.8459  146.6384  157.3258 N.ar    1  UNL1       -0.1908
     16 C         139.1117  151.1044  154.1713 C.ar    1  UNL1        0.1057
     17 C         139.7817  149.9848  153.4314 C.ar    1  UNL1        0.0184
     18 C         139.8358  148.6130  154.0357 C.ar    1  UNL1        0.0045
     19 C         139.2198  148.3608  155.3799 C.ar    1  UNL1        0.0392
     20 C         138.5498  149.4804  156.1198 C.ar    1  UNL1        0.0045
     21 C         138.4958  150.8522  155.5155 C.ar    1  UNL1        0.0184
     22 C         139.0037  153.8480  152.9627 C.3     1  UNL1        0.1816
     23 S         139.0577  152.4762  153.5670 S.O2    1  UNL1        0.0104
     24 O         139.2937  153.0812  154.9191 O.2     1  UNL1       -0.1686
     25 O         138.8217  151.8713  152.2148 O.2     1  UNL1       -0.1686
     26 C         142.6607  141.9405  164.6349 C.3     1  UNL1        0.0774
     27 C         143.3942  140.7776  165.2347 C.3     1  UNL1        0.0259
     28 C         142.6829  141.7548  166.1231 C.3     1  UNL1        0.0420
     29 C         142.2851  142.2116  167.4954 C.ar    1  UNL1       -0.0208
     30 C         140.8659  142.6118  167.7706 C.ar    1  UNL1       -0.0042
     31 C         140.4681  143.0687  169.1428 C.ar    1  UNL1       -0.0003
     32 C         141.4895  143.1254  170.2398 C.ar    1  UNL1       -0.0000
     33 C         142.9087  142.7252  169.9646 C.ar    1  UNL1       -0.0003
     34 C         143.3065  142.2683  168.5925 C.ar    1  UNL1       -0.0042
@<TRIPOS>BOND
     1    22    23    1
     2    23    24    2
     3    23    25    2
     4    23    16    1
     5    16    17   ar
     6    17    18   ar
     7    18    19   ar
     8    19    11    1
     9    11    12   ar
    10    12    13   ar
    11    13    14   ar
    12    14     1    1
    13     1     2    1
    14     2     3    1
    15     3     4    1
    16     4     5   am
    17     5     6    2
    18     5     7   am
    19     7    26    1
    20    26    27    1
    21    27    28    1
    22    28    29    1
    23    29    30   ar
    24    30    31   ar
    25    31    32   ar
    26    32    33   ar
    27    33    34   ar
    28     4     8    1
    29     8     9    1
    30    14    15   ar
    31    19    20   ar
    32    20    21   ar
    33    21    16   ar
    34    15    11   ar
    35     9     1    1
    36    28    26    1
    37    34    29   ar
    38     7    10    1
@<TRIPOS>MOLECULE
*****
 34 38 0 0 0
SMALL
GASTEIGER

@<TRIPOS>ATOM
      1 C         139.0561  142.3690  160.5306 C.3     1  UNL1        0.0827
      2 C         139.7981  143.6710  160.4628 C.3     1  UNL1        0.0309
      3 C         139.9217  144.3965  159.1559 C.3     1  UNL1        0.0954
      4 N         139.3034  143.8202  157.9167 N.am    1  UNL1       -0.2642
      5 C         139.4270  144.5458  156.6096 C.2     1  UNL1        0.3039
      6 O         138.8087  143.9695  155.3705 O.2     1  UNL1       -0.2526
      7 N         140.1689  145.8477  156.5418 N.am    1  UNL1       -0.2901
      8 C         138.5615  142.5184  157.9845 C.3     1  UNL1        0.0954
      9 C         138.4378  141.7927  159.2914 C.3     1  UNL1        0.0309
     10 H         140.5747  146.2259  157.3551 H       1  UNL1        0.1509
     11 C         139.1329  141.0702  164.1875 C.ar    1  UNL1        0.2033
     12 N         138.3516  139.9835  163.5102 N.ar    1  UNL1       -0.0560
     13 O         138.2277  140.3378  162.0579 O.2     1  UNL1       -0.3370
     14 C         138.9325  141.6434  161.8376 C.ar    1  UNL1        0.2362
     15 N         139.4919  142.0961  163.1537 N.ar    1  UNL1       -0.1908
     16 C         140.2106  141.2254  168.5538 C.ar    1  UNL1        0.1057
     17 C         139.5376  140.0091  167.9901 C.ar    1  UNL1        0.0184
     18 C         139.1784  139.9574  166.5347 C.ar    1  UNL1        0.0045
     19 C         139.4921  141.1220  165.6429 C.ar    1  UNL1        0.0392
     20 C         140.1651  142.3382  166.2065 C.ar    1  UNL1        0.0045
     21 C         140.5243  142.3900  167.6620 C.ar    1  UNL1        0.0184
     22 C         140.9290  141.3289  171.4646 C.3     1  UNL1        0.1816
     23 S         140.5698  141.2772  170.0092 S.O2    1  UNL1        0.0104
     24 O         139.1419  140.9950  170.3717 O.2     1  UNL1       -0.1686
     25 O         141.9977  141.5594  169.6467 O.2     1  UNL1       -0.1686
     26 C         140.2926  146.5733  155.2348 C.3     1  UNL1        0.0774
     27 C         140.7026  146.5901  153.7920 C.3     1  UNL1        0.0259
     28 C         140.0968  147.8133  154.4139 C.3     1  UNL1        0.0420
     29 C         139.6340  149.2355  154.2989 C.ar    1  UNL1       -0.0208
     30 C         139.8770  150.0033  153.0334 C.ar    1  UNL1       -0.0042
     31 C         139.4142  151.4255  152.9184 C.ar    1  UNL1       -0.0003
     32 C         138.7085  152.0798  154.0689 C.ar    1  UNL1       -0.0000
     33 C         138.4655  151.3121  155.3343 C.ar    1  UNL1       -0.0003
     34 C         138.9283  149.8900  155.4493 C.ar    1  UNL1       -0.0042
@<TRIPOS>BOND
     1    22    23    1
     2    23    24    2
     3    23    25    2
     4    23    16    1
     5    16    17   ar
     6    17    18   ar
     7    18    19   ar
     8    19    11    1
     9    11    12   ar
    10    12    13   ar
    11    13    14   ar
    12    14     1    1
    13     1     2    1
    14     2     3    1
    15     3     4    1
    16     4     5   am
    17     5     6    2
    18     5     7   am
    19     7    26    1
    20    26    27    1
    21    27    28    1
    22    28    29    1
    23    29    30   ar
    24    30    31   ar
    25    31    32   ar
    26    32    33   ar
    27    33    34   ar
    28     4     8    1
    29     8     9    1
    30    14    15   ar
    31    19    20   ar
    32    20    21   ar
    33    21    16   ar
    34    15    11   ar
    35     9     1    1
    36    28    26    1
    37    34    29   ar
    38     7    10    1
@<TRIPOS>MOLECULE
*****
 34 38 0 0 0
SMALL
GASTEIGER

@<TRIPOS>ATOM
      1 C         142.4517  139.0991  158.9415 C.3     1  UNL1        0.0827
      2 C         142.2233  138.5112  160.3025 C.3     1  UNL1        0.0309
      3 C         141.7125  139.3757  161.4167 C.3     1  UNL1        0.0954
      4 N         141.4300  140.8280  161.1701 N.am    1  UNL1       -0.2642
      5 C         140.9192  141.6925  162.2845 C.2     1  UNL1        0.3039
      6 O         140.6367  143.1449  162.0379 O.2     1  UNL1       -0.2526
      7 N         140.6908  141.1046  163.6455 N.am    1  UNL1       -0.2901
      8 C         141.6584  141.4159  159.8093 C.3     1  UNL1        0.0954
      9 C         142.1692  140.5515  158.6949 C.3     1  UNL1        0.0309
     10 H         140.8762  140.1513  163.8073 H       1  UNL1        0.1509
     11 C         143.3654  136.3219  156.3886 C.ar    1  UNL1        0.2033
     12 N         144.1317  137.4870  155.8361 N.ar    1  UNL1       -0.0560
     13 O         143.8827  138.6692  156.7251 O.2     1  UNL1       -0.3370
     14 C         142.9625  138.2347  157.8271 C.ar    1  UNL1        0.2362
     15 N         142.6428  136.7840  157.6192 N.ar    1  UNL1       -0.1908
     16 C         143.2540  132.1693  154.6584 C.ar    1  UNL1        0.1057
     17 C         143.9834  132.4270  155.9435 C.ar    1  UNL1        0.0184
     18 C         144.0206  133.8112  156.5202 C.ar    1  UNL1        0.0045
     19 C         143.3283  134.9377  155.8119 C.ar    1  UNL1        0.0392
     20 C         142.5989  134.6799  154.5268 C.ar    1  UNL1        0.0045
     21 C         142.5617  133.2958  153.9500 C.ar    1  UNL1        0.0184
     22 C         143.1797  129.4009  153.5049 C.3     1  UNL1        0.1816
     23 S         143.2169  130.7851  154.0816 S.O2    1  UNL1        0.0104
     24 O         143.5037  131.3448  152.7198 O.2     1  UNL1       -0.1686
     25 O         142.9301  130.2254  155.4434 O.2     1  UNL1       -0.1686
     26 C         140.1800  141.9690  164.7599 C.3     1  UNL1        0.0774
     27 C         139.1482  142.9122  165.3038 C.3     1  UNL1        0.0259
     28 C         140.3269  142.5230  166.1460 C.3     1  UNL1        0.0420
     29 C         141.0922  142.6182  167.4326 C.ar    1  UNL1       -0.0208
     30 C         142.5196  142.1612  167.4917 C.ar    1  UNL1       -0.0042
     31 C         143.2850  142.2564  168.7783 C.ar    1  UNL1       -0.0003
     32 C         142.6228  142.8086  170.0056 C.ar    1  UNL1       -0.0000
     33 C         141.1954  143.2656  169.9465 C.ar    1  UNL1       -0.0003
     34 C         140.4301  143.1704  168.6600 C.ar    1  UNL1       -0.0042
@<TRIPOS>BOND
     1    22    23    1
     2    23    24    2
     3    23    25    2
     4    23    16    1
     5    16    17   ar
     6    17    18   ar
     7    18    19   ar
     8    19    11    1
     9    11    12   ar
    10    12    13   ar
    11    13    14   ar
    12    14     1    1
    13     1     2    1
    14     2     3    1
    15     3     4    1
    16     4     5   am
    17     5     6    2
    18     5     7   am
    19     7    26    1
    20    26    27    1
    21    27    28    1
    22    28    29    1
    23    29    30   ar
    24    30    31   ar
    25    31    32   ar
    26    32    33   ar
    27    33    34   ar
    28     4     8    1
    29     8     9    1
    30    14    15   ar
    31    19    20   ar
    32    20    21   ar
    33    21    16   ar
    34    15    11   ar
    35     9     1    1
    36    28    26    1
    37    34    29   ar
    38     7    10    1
@<TRIPOS>MOLECULE
*****
 34 38 0 0 0
SMALL
GASTEIGER

@<TRIPOS>ATOM
      1 C         142.6527  139.1365  159.5985 C.3     1  UNL1        0.0827
      2 C         141.2301  139.4262  159.9760 C.3     1  UNL1        0.0309
      3 C         140.9301  140.2524  161.1914 C.3     1  UNL1        0.0954
      4 N         142.0525  140.7890  162.0293 N.am    1  UNL1       -0.2642
      5 C         141.7524  141.6153  163.2448 C.2     1  UNL1        0.3039
      6 O         142.8748  142.1518  164.0828 O.2     1  UNL1       -0.2526
      7 N         140.3298  141.9049  163.6223 N.am    1  UNL1       -0.2901
      8 C         143.4749  140.4993  161.6520 C.3     1  UNL1        0.0954
      9 C         143.7751  139.6731  160.4365 C.3     1  UNL1        0.0309
     10 H         139.5931  141.5527  163.0722 H       1  UNL1        0.1509
     11 C         143.0546  136.4568  156.8195 C.ar    1  UNL1        0.2033
     12 N         143.7749  137.6208  156.2061 N.ar    1  UNL1       -0.0560
     13 O         143.7120  138.7663  157.1725 O.2     1  UNL1       -0.3370
     14 C         142.9529  138.3103  158.3831 C.ar    1  UNL1        0.2362
     15 N         142.5465  136.8830  158.1650 N.ar    1  UNL1       -0.1908
     16 C         142.5128  132.3989  154.9513 C.ar    1  UNL1        0.1057
     17 C         142.3412  133.6360  154.1206 C.ar    1  UNL1        0.0184
     18 C         142.5218  134.9886  154.7433 C.ar    1  UNL1        0.0045
     19 C         142.8740  135.1042  156.1968 C.ar    1  UNL1        0.0392
     20 C         143.0456  133.8671  157.0275 C.ar    1  UNL1        0.0045
     21 C         142.8651  132.5145  156.4048 C.ar    1  UNL1        0.0184
     22 C         142.1517  129.6937  153.7059 C.3     1  UNL1        0.1816
     23 S         142.3323  131.0463  154.3286 S.O2    1  UNL1        0.0104
     24 O         140.9084  131.0195  154.7997 O.2     1  UNL1       -0.1686
     25 O         143.7561  131.0731  153.8575 O.2     1  UNL1       -0.1686
     26 C         140.0296  142.7311  164.8377 C.3     1  UNL1        0.0774
     27 C         139.2583  143.8334  165.5011 C.3     1  UNL1        0.0259
     28 C         140.2810  143.0600  166.2794 C.3     1  UNL1        0.0420
     29 C         141.0166  142.8032  167.5612 C.ar    1  UNL1       -0.0208
     30 C         140.4148  143.2254  168.8688 C.ar    1  UNL1       -0.0042
     31 C         141.1504  142.9687  170.1506 C.ar    1  UNL1       -0.0003
     32 C         142.4877  142.2898  170.1248 C.ar    1  UNL1       -0.0000
     33 C         143.0895  141.8677  168.8173 C.ar    1  UNL1       -0.0003
     34 C         142.3539  142.1244  167.5355 C.ar    1  UNL1       -0.0042
@<TRIPOS>BOND
     1    22    23    1
     2    23    24    2
     3    23    25    2
     4    23    16    1
     5    16    17   ar
     6    17    18   ar
     7    18    19   ar
     8    19    11    1
     9    11    12   ar
    10    12    13   ar
    11    13    14   ar
    12    14     1    1
    13     1     2    1
    14     2     3    1
    15     3     4    1
    16     4     5   am
    17     5     6    2
    18     5     7   am
    19     7    26    1
    20    26    27    1
    21    27    28    1
    22    28    29    1
    23    29    30   ar
    24    30    31   ar
    25    31    32   ar
    26    32    33   ar
    27    33    34   ar
    28     4     8    1
    29     8     9    1
    30    14    15   ar
    31    19    20   ar
    32    20    21   ar
    33    21    16   ar
    34    15    11   ar
    35     9     1    1
    36    28    26    1
    37    34    29   ar
    38     7    10    1
@<TRIPOS>MOLECULE
*****
 34 38 0 0 0
SMALL
GASTEIGER

@<TRIPOS>ATOM
      1 C         142.4637  139.3139  159.8279 C.3     1  UNL1        0.0827
      2 C         141.6527  140.3962  160.4768 C.3     1  UNL1        0.0309
      3 C         141.0863  140.1879  161.8500 C.3     1  UNL1        0.0954
      4 N         141.3308  138.8974  162.5743 N.am    1  UNL1       -0.2642
      5 C         140.7643  138.6891  163.9476 C.2     1  UNL1        0.3039
      6 O         141.0088  137.3985  164.6720 O.2     1  UNL1       -0.2526
      7 N         139.9534  139.7714  164.5965 N.am    1  UNL1       -0.2901
      8 C         142.1417  137.8151  161.9255 C.3     1  UNL1        0.0954
      9 C         142.7082  138.0234  160.5523 C.3     1  UNL1        0.0309
     10 H         139.7929  140.6184  164.1210 H       1  UNL1        0.1509
     11 C         144.4528  140.2605  156.6322 C.ar    1  UNL1        0.2033
     12 N         143.3511  139.4247  156.0510 N.ar    1  UNL1       -0.0560
     13 O         142.4719  138.9683  157.1774 O.2     1  UNL1       -0.3370
     14 C         143.0302  139.5221  158.4547 C.ar    1  UNL1        0.2362
     15 N         144.2544  140.3207  158.1178 N.ar    1  UNL1       -0.1908
     16 C         147.7703  142.2397  154.3242 C.ar    1  UNL1        0.1057
     17 C         147.5912  142.5364  155.7836 C.ar    1  UNL1        0.0184
     18 C         146.4854  141.8767  156.5529 C.ar    1  UNL1        0.0045
     19 C         145.5586  140.9202  155.8628 C.ar    1  UNL1        0.0392
     20 C         145.7377  140.6235  154.4035 C.ar    1  UNL1        0.0045
     21 C         146.8435  141.2833  153.6341 C.ar    1  UNL1        0.0184
     22 C         149.9820  143.5592  152.7855 C.3     1  UNL1        0.1816
     23 S         148.8761  142.8995  153.5549 S.O2    1  UNL1        0.0104
     24 O         147.9888  144.0799  153.2918 O.2     1  UNL1       -0.1686
     25 O         149.7634  141.7190  153.8179 O.2     1  UNL1       -0.1686
     26 C         139.3869  139.5632  165.9697 C.3     1  UNL1        0.0774
     27 C         138.2860  139.0662  166.8592 C.3     1  UNL1        0.0259
     28 C         139.5065  139.6994  167.4587 C.3     1  UNL1        0.0420
     29 C         140.2803  140.1436  168.6645 C.ar    1  UNL1       -0.0208
     30 C         141.7030  139.7045  168.8463 C.ar    1  UNL1       -0.0042
     31 C         142.4768  140.1488  170.0521 C.ar    1  UNL1       -0.0003
     32 C         141.8278  141.0321  171.0761 C.ar    1  UNL1       -0.0000
     33 C         140.4051  141.4711  170.8942 C.ar    1  UNL1       -0.0003
     34 C         139.6314  141.0269  169.6885 C.ar    1  UNL1       -0.0042
@<TRIPOS>BOND
     1    22    23    1
     2    23    24    2
     3    23    25    2
     4    23    16    1
     5    16    17   ar
     6    17    18   ar
     7    18    19   ar
     8    19    11    1
     9    11    12   ar
    10    12    13   ar
    11    13    14   ar
    12    14     1    1
    13     1     2    1
    14     2     3    1
    15     3     4    1
    16     4     5   am
    17     5     6    2
    18     5     7   am
    19     7    26    1
    20    26    27    1
    21    27    28    1
    22    28    29    1
    23    29    30   ar
    24    30    31   ar
    25    31    32   ar
    26    32    33   ar
    27    33    34   ar
    28     4     8    1
    29     8     9    1
    30    14    15   ar
    31    19    20   ar
    32    20    21   ar
    33    21    16   ar
    34    15    11   ar
    35     9     1    1
    36    28    26    1
    37    34    29   ar
    38     7    10    1
@<TRIPOS>MOLECULE
*****
 34 38 0 0 0
SMALL
GASTEIGER

@<TRIPOS>ATOM
      1 C         143.3252  139.4789  161.0666 C.3     1  UNL1        0.0827
      2 C         143.1176  137.9936  161.0426 C.3     1  UNL1        0.0309
      3 C         142.9499  137.2808  159.7336 C.3     1  UNL1        0.0954
      4 N         142.9897  138.0533  158.4485 N.am    1  UNL1       -0.2642
      5 C         142.8219  137.3404  157.1393 C.2     1  UNL1        0.3039
      6 O         142.8617  138.1130  155.8542 O.2     1  UNL1       -0.2526
      7 N         142.6143  135.8551  157.1154 N.am    1  UNL1       -0.2901
      8 C         143.1972  139.5386  158.4724 C.3     1  UNL1        0.0954
      9 C         143.3650  140.2515  159.7814 C.3     1  UNL1        0.0309
     10 H         142.5882  135.3480  157.9589 H       1  UNL1        0.1509
     11 C         143.0496  141.1041  164.5806 C.ar    1  UNL1        0.2033
     12 N         144.4525  141.4736  164.1996 N.ar    1  UNL1       -0.0560
     13 O         144.7266  140.9098  162.8369 O.2     1  UNL1       -0.3370
     14 C         143.4930  140.1918  162.3756 C.ar    1  UNL1        0.2362
     15 N         142.4566  140.3119  163.4533 N.ar    1  UNL1       -0.1908
     16 C         140.9828  142.1826  168.4297 C.ar    1  UNL1        0.1057
     17 C         142.0199  141.0991  168.4133 C.ar    1  UNL1        0.0184
     18 C         142.7089  140.7396  167.1303 C.ar    1  UNL1        0.0045
     19 C         142.3607  141.4636  165.8636 C.ar    1  UNL1        0.0392
     20 C         141.3235  142.5471  165.8800 C.ar    1  UNL1        0.0045
     21 C         140.6346  142.9066  167.1630 C.ar    1  UNL1        0.0184
     22 C         139.6049  142.9016  170.9957 C.3     1  UNL1        0.1816
     23 S         140.2939  142.5421  169.7127 S.O2    1  UNL1        0.0104
     24 O         140.5462  141.1591  170.2357 O.2     1  UNL1       -0.1686
     25 O         140.0415  143.9251  169.1896 O.2     1  UNL1       -0.1686
     26 C         142.4466  135.1422  155.8063 C.3     1  UNL1        0.0774
     27 C         141.9025  135.1027  154.4090 C.3     1  UNL1        0.0259
     28 C         142.7001  133.9469  154.9362 C.3     1  UNL1        0.0420
     29 C         143.3069  132.5895  154.7382 C.ar    1  UNL1       -0.0208
     30 C         144.2037  132.0081  155.7907 C.ar    1  UNL1       -0.0042
     31 C         144.8106  130.6507  155.5927 C.ar    1  UNL1       -0.0003
     32 C         144.5206  129.8748  154.3422 C.ar    1  UNL1       -0.0000
     33 C         143.6239  130.4562  153.2897 C.ar    1  UNL1       -0.0003
     34 C         143.0170  131.8135  153.4877 C.ar    1  UNL1       -0.0042
@<TRIPOS>BOND
     1    22    23    1
     2    23    24    2
     3    23    25    2
     4    23    16    1
     5    16    17   ar
     6    17    18   ar
     7    18    19   ar
     8    19    11    1
     9    11    12   ar
    10    12    13   ar
    11    13    14   ar
    12    14     1    1
    13     1     2    1
    14     2     3    1
    15     3     4    1
    16     4     5   am
    17     5     6    2
    18     5     7   am
    19     7    26    1
    20    26    27    1
    21    27    28    1
    22    28    29    1
    23    29    30   ar
    24    30    31   ar
    25    31    32   ar
    26    32    33   ar
    27    33    34   ar
    28     4     8    1
    29     8     9    1
    30    14    15   ar
    31    19    20   ar
    32    20    21   ar
    33    21    16   ar
    34    15    11   ar
    35     9     1    1
    36    28    26    1
    37    34    29   ar
    38     7    10    1
@<TRIPOS>MOLECULE
*****
 34 38 0 0 0
SMALL
GASTEIGER

@<TRIPOS>ATOM
      1 C         143.0091  138.9537  159.2272 C.3     1  UNL1        0.0827
      2 C         143.6984  138.5212  160.4873 C.3     1  UNL1        0.0309
      3 C         143.7829  139.4583  161.6554 C.3     1  UNL1        0.0954
      4 N         143.1780  140.8278  161.5636 N.am    1  UNL1       -0.2642
      5 C         143.2624  141.7650  162.7318 C.2     1  UNL1        0.3039
      6 O         142.6575  143.1345  162.6400 O.2     1  UNL1       -0.2526
      7 N         143.9518  141.3325  163.9919 N.am    1  UNL1       -0.2901
      8 C         142.4886  141.2603  160.3036 C.3     1  UNL1        0.0954
      9 C         142.4041  140.3232  159.1354 C.3     1  UNL1        0.0309
     10 H         144.3488  140.4337  164.0522 H       1  UNL1        0.1509
     11 C         142.6611  136.0036  156.7290 C.ar    1  UNL1        0.2033
     12 N         142.9280  137.1455  155.7937 N.ar    1  UNL1       -0.0560
     13 O         143.0909  138.3896  156.6157 O.2     1  UNL1       -0.3370
     14 C         142.9246  138.0166  158.0590 C.ar    1  UNL1        0.2362
     15 N         142.6589  136.5420  158.1290 N.ar    1  UNL1       -0.1908
     16 C         141.9853  131.7156  155.5429 C.ar    1  UNL1        0.1057
     17 C         142.8989  132.0423  156.6868 C.ar    1  UNL1        0.0184
     18 C         143.1242  133.4716  157.0821 C.ar    1  UNL1        0.0045
     19 C         142.4358  134.5743  156.3336 C.ar    1  UNL1        0.0392
     20 C         141.5221  134.2476  155.1898 C.ar    1  UNL1        0.0045
     21 C         141.2969  132.8182  154.7944 C.ar    1  UNL1        0.0184
     22 C         141.5347  128.8570  154.7522 C.3     1  UNL1        0.1816
     23 S         141.7600  130.2863  155.1476 S.O2    1  UNL1        0.0104
     24 O         140.7179  130.7234  154.1612 O.2     1  UNL1       -0.1686
     25 O         142.8021  129.8492  156.1340 O.2     1  UNL1       -0.1686
     26 C         144.0363  142.2696  165.1601 C.3     1  UNL1        0.0774
     27 C         144.6168  143.4935  165.8044 C.3     1  UNL1        0.0259
     28 C         143.6021  142.6688  166.5393 C.3     1  UNL1        0.0420
     29 C         142.7656  142.4231  167.7599 C.ar    1  UNL1       -0.0208
     30 C         143.4146  142.3401  169.1097 C.ar    1  UNL1       -0.0042
     31 C         142.5781  142.0944  170.3303 C.ar    1  UNL1       -0.0003
     32 C         141.0926  141.9317  170.2011 C.ar    1  UNL1       -0.0000
     33 C         140.4436  142.0146  168.8513 C.ar    1  UNL1       -0.0003
     34 C         141.2801  142.2603  167.6308 C.ar    1  UNL1       -0.0042
@<TRIPOS>BOND
     1    22    23    1
     2    23    24    2
     3    23    25    2
     4    23    16    1
     5    16    17   ar
     6    17    18   ar
     7    18    19   ar
     8    19    11    1
     9    11    12   ar
    10    12    13   ar
    11    13    14   ar
    12    14     1    1
    13     1     2    1
    14     2     3    1
    15     3     4    1
    16     4     5   am
    17     5     6    2
    18     5     7   am
    19     7    26    1
    20    26    27    1
    21    27    28    1
    22    28    29    1
    23    29    30   ar
    24    30    31   ar
    25    31    32   ar
    26    32    33   ar
    27    33    34   ar
    28     4     8    1
    29     8     9    1
    30    14    15   ar
    31    19    20   ar
    32    20    21   ar
    33    21    16   ar
    34    15    11   ar
    35     9     1    1
    36    28    26    1
    37    34    29   ar
    38     7    10    1
@<TRIPOS>MOLECULE
*****
 34 38 0 0 0
SMALL
GASTEIGER

@<TRIPOS>ATOM
      1 C         143.5466  139.3191  160.4720 C.3     1  UNL1        0.0827
      2 C         143.2111  137.8579  160.4213 C.3     1  UNL1        0.0309
      3 C         142.8724  137.2113  159.1109 C.3     1  UNL1        0.0954
      4 N         142.8693  138.0257  157.8513 N.am    1  UNL1       -0.2642
      5 C         142.5306  137.3790  156.5408 C.2     1  UNL1        0.3039
      6 O         142.5275  138.1934  155.2812 O.2     1  UNL1       -0.2526
      7 N         142.1951  135.9178  156.4901 N.am    1  UNL1       -0.2901
      8 C         143.2048  139.4867  157.9020 C.3     1  UNL1        0.0954
      9 C         143.5434  140.1335  159.2123 C.3     1  UNL1        0.0309
     10 H         142.1972  135.3833  157.3169 H       1  UNL1        0.1509
     11 C         143.8194  140.6206  164.1185 C.ar    1  UNL1        0.2033
     12 N         144.9932  141.3014  163.4791 N.ar    1  UNL1       -0.0560
     13 O         145.0339  140.8968  162.0353 O.2     1  UNL1       -0.3370
     14 C         143.8852  139.9658  161.7823 C.ar    1  UNL1        0.2362
     15 N         143.1347  139.7951  163.0698 N.ar    1  UNL1       -0.1908
     16 C         142.5716  140.9897  168.4262 C.ar    1  UNL1        0.1057
     17 C         142.9638  142.2128  167.6516 C.ar    1  UNL1        0.0184
     18 C         143.3797  142.0897  166.2157 C.ar    1  UNL1        0.0045
     19 C         143.4035  140.7436  165.5544 C.ar    1  UNL1        0.0392
     20 C         143.0113  139.5205  166.3291 C.ar    1  UNL1        0.0045
     21 C         142.5953  139.6435  167.7650 C.ar    1  UNL1        0.0184
     22 C         141.7397  141.2357  171.2981 C.3     1  UNL1        0.1816
     23 S         142.1556  141.1127  169.8622 S.O2    1  UNL1        0.0104
     24 O         143.3659  140.3310  170.2797 O.2     1  UNL1       -0.1686
     25 O         140.9454  141.8943  169.4446 O.2     1  UNL1       -0.1686
     26 C         141.8565  135.2711  155.1798 C.3     1  UNL1        0.0774
     27 C         141.4129  135.3846  153.7514 C.3     1  UNL1        0.0259
     28 C         141.7135  134.0375  154.3386 C.3     1  UNL1        0.0420
     29 C         141.8045  132.5474  154.1919 C.ar    1  UNL1       -0.0208
     30 C         140.7432  131.6692  154.7853 C.ar    1  UNL1       -0.0042
     31 C         140.8342  130.1791  154.6386 C.ar    1  UNL1       -0.0003
     32 C         141.9866  129.5674  153.8985 C.ar    1  UNL1       -0.0000
     33 C         143.0479  130.4457  153.3051 C.ar    1  UNL1       -0.0003
     34 C         142.9569  131.9356  153.4518 C.ar    1  UNL1       -0.0042
@<TRIPOS>BOND
     1    22    23    1
     2    23    24    2
     3    23    25    2
     4    23    16    1
     5    16    17   ar
     6    17    18   ar
     7    18    19   ar
     8    19    11    1
     9    11    12   ar
    10    12    13   ar
    11    13    14   ar
    12    14     1    1
    13     1     2    1
    14     2     3    1
    15     3     4    1
    16     4     5   am
    17     5     6    2
    18     5     7   am
    19     7    26    1
    20    26    27    1
    21    27    28    1
    22    28    29    1
    23    29    30   ar
    24    30    31   ar
    25    31    32   ar
    26    32    33   ar
    27    33    34   ar
    28     4     8    1
    29     8     9    1
    30    14    15   ar
    31    19    20   ar
    32    20    21   ar
    33    21    16   ar
    34    15    11   ar
    35     9     1    1
    36    28    26    1
    37    34    29   ar
    38     7    10    1
