@<TRIPOS>MOLECULE
*****
 33 38 0 0 0
SMALL
GASTEIGER

@<TRIPOS>ATOM
      1 N         144.4592  139.1748  163.3484 N.pl3   1  UNL1       -0.3133
      2 C         143.7996  139.2903  164.6906 C.2     1  UNL1        0.2770
      3 N         142.7378  140.2802  165.0690 N.2     1  UNL1       -0.2202
      4 C         142.3680  140.0380  166.5023 C.3     1  UNL1        0.1580
      5 C         143.2011  138.8984  167.0098 C.3     1  UNL1        0.2351
      6 O         144.0859  138.4364  165.8901 O.2     1  UNL1       -0.4478
      7 C         141.6084  141.1591  165.8573 C.ar    1  UNL1        0.0357
      8 C         141.8721  141.5170  164.4247 C.ar    1  UNL1        0.0007
      9 C         141.1126  142.6381  163.7797 C.ar    1  UNL1        0.0013
     10 C         140.0892  143.4014  164.5672 C.ar    1  UNL1        0.0031
     11 C         139.8255  143.0435  165.9999 C.ar    1  UNL1        0.0366
     12 C         140.5851  141.9223  166.6449 C.ar    1  UNL1        0.1360
     13 O         140.3214  141.5644  168.0775 O.3     1  UNL1       -0.4826
     14 C         141.0810  140.4433  168.7225 C.3     1  UNL1        0.1395
     15 C         140.1666  140.9596  169.7938 C.3     1  UNL1        0.0404
     16 C         140.7080  139.9372  170.7486 C.3     1  UNL1        0.0072
     17 C         141.6224  139.4209  169.6774 C.3     1  UNL1        0.0404
     18 C         142.1043  139.6801  167.9349 C.3     1  UNL1        0.1141
     19 C         141.8923  139.9929  167.7550 C.3     1  UNL1        0.1501
     20 O         142.1151  139.6641  167.9441 O.3     1  UNL1       -0.3532
     21 C         141.8923  139.9929  167.7550 C.3     1  UNL1        0.1501
     22 H         144.2021  139.7845  162.6195 H       1  UNL1        0.1466
     23 H         145.1492  138.4892  163.1964 H       1  UNL1        0.1466
     24 C         141.3763  142.9960  162.3470 C.ar    1  UNL1        0.0217
     25 C         140.6420  142.2853  161.2490 C.ar    1  UNL1        0.0030
     26 C         140.9057  142.6432  159.8164 C.ar    1  UNL1        0.0207
     27 C         141.9037  143.7118  159.4818 C.ar    1  UNL1        0.0988
     28 N         142.6381  144.4225  160.5799 N.ar    1  UNL1       -0.2399
     29 C         142.3744  144.0646  162.0125 C.ar    1  UNL1        0.1526
     30 C         143.1087  144.7753  163.1105 C.3     1  UNL1        0.4348
     31 F         143.8430  145.4861  164.2085 F       1  UNL1       -0.1644
     32 F         141.9712  145.7439  163.2443 F       1  UNL1       -0.1644
     33 F         144.2463  143.8068  162.9766 F       1  UNL1       -0.1644
@<TRIPOS>BOND
     1     1     2    1
     2     2     3    2
     3     3     4    1
     4     4     5    1
     5     5     6    1
     6     4     7    1
     7     7     8   ar
     8     8     9   ar
     9     9    24    1
    10    24    25   ar
    11    25    26   ar
    12    26    27   ar
    13    27    28   ar
    14    28    29   ar
    15    29    30    1
    16    30    31    1
    17    30    32    1
    18    30    33    1
    19     9    10   ar
    20    10    11   ar
    21    11    12   ar
    22    12    13    1
    23    13    14    1
    24    14    15    1
    25    15    16    1
    26    16    17    1
    27    14    18    1
    28    18    19    1
    29    19    20    1
    30    20    21    1
    31     6     2    1
    32    12     7   ar
    33    17    14    1
    34    21    18    1
    35    18     4    1
    36    29    24   ar
    37     1    22    1
    38     1    23    1
@<TRIPOS>MOLECULE
*****
 33 38 0 0 0
SMALL
GASTEIGER

@<TRIPOS>ATOM
      1 N         139.9589  142.8847  162.9060 N.pl3   1  UNL1       -0.3133
      2 C         140.1274  142.8196  164.3950 C.2     1  UNL1        0.2770
      3 N         140.8940  141.7750  165.1508 N.2     1  UNL1       -0.2202
      4 C         140.7992  142.0974  166.6126 C.3     1  UNL1        0.1580
      5 C         139.9740  143.3414  166.7603 C.3     1  UNL1        0.2351
      6 O         139.5588  143.7877  165.3898 O.2     1  UNL1       -0.4478
      7 C         141.6022  140.8672  166.3100 C.ar    1  UNL1        0.0357
      8 C         141.7839  140.4207  164.8896 C.ar    1  UNL1        0.0007
      9 C         142.5869  139.1904  164.5870 C.ar    1  UNL1        0.0013
     10 C         143.2083  138.4066  165.7049 C.ar    1  UNL1        0.0031
     11 C         143.0265  138.8530  167.1253 C.ar    1  UNL1        0.0366
     12 C         142.2235  140.0834  167.4279 C.ar    1  UNL1        0.1360
     13 O         142.0418  140.5298  168.8483 O.3     1  UNL1       -0.4826
     14 C         141.2388  141.7601  169.1509 C.3     1  UNL1        0.1395
     15 C         141.6918  141.2535  170.4882 C.3     1  UNL1        0.0404
     16 C         140.9818  142.3915  171.1598 C.3     1  UNL1        0.0072
     17 C         140.5288  142.8981  169.8225 C.3     1  UNL1        0.0404
     18 C         140.6175  142.5439  168.0331 C.3     1  UNL1        0.1141
     19 C         140.8415  142.2007  167.9487 C.3     1  UNL1        0.1501
     20 O         140.6061  142.5614  168.0374 O.3     1  UNL1       -0.3532
     21 C         140.8415  142.2007  167.9487 C.3     1  UNL1        0.1501
     22 H         140.3727  142.1991  162.3333 H       1  UNL1        0.1466
     23 H         139.4346  143.6131  162.5013 H       1  UNL1        0.1466
     24 C         142.7687  138.7440  163.1666 C.ar    1  UNL1        0.0217
     25 C         144.0254  139.0927  162.4257 C.ar    1  UNL1        0.0030
     26 C         144.2071  138.6463  161.0053 C.ar    1  UNL1        0.0207
     27 C         143.1321  137.8510  160.3257 C.ar    1  UNL1        0.0988
     28 N         141.8753  137.5022  161.0666 N.ar    1  UNL1       -0.2399
     29 C         141.6936  137.9487  162.4870 C.ar    1  UNL1        0.1526
     30 C         140.4368  137.5999  163.2279 C.3     1  UNL1        0.4348
     31 F         139.1800  137.2511  163.9687 F       1  UNL1       -0.1644
     32 F         139.7639  138.8130  162.6575 F       1  UNL1       -0.1644
     33 F         141.1098  136.3867  163.7983 F       1  UNL1       -0.1644
@<TRIPOS>BOND
     1     1     2    1
     2     2     3    2
     3     3     4    1
     4     4     5    1
     5     5     6    1
     6     4     7    1
     7     7     8   ar
     8     8     9   ar
     9     9    24    1
    10    24    25   ar
    11    25    26   ar
    12    26    27   ar
    13    27    28   ar
    14    28    29   ar
    15    29    30    1
    16    30    31    1
    17    30    32    1
    18    30    33    1
    19     9    10   ar
    20    10    11   ar
    21    11    12   ar
    22    12    13    1
    23    13    14    1
    24    14    15    1
    25    15    16    1
    26    16    17    1
    27    14    18    1
    28    18    19    1
    29    19    20    1
    30    20    21    1
    31     6     2    1
    32    12     7   ar
    33    17    14    1
    34    21    18    1
    35    18     4    1
    36    29    24   ar
    37     1    22    1
    38     1    23    1
@<TRIPOS>MOLECULE
*****
 33 38 0 0 0
SMALL
GASTEIGER

@<TRIPOS>ATOM
      1 N         137.7584  138.5612  167.2863 N.pl3   1  UNL1       -0.3133
      2 C         138.7256  138.4192  166.1485 C.2     1  UNL1        0.2770
      3 N         140.0196  139.1619  165.9934 N.2     1  UNL1       -0.2202
      4 C         140.6622  138.7113  164.7152 C.3     1  UNL1        0.1580
      5 C         139.7654  137.6901  164.0804 C.3     1  UNL1        0.2351
      6 O         138.5685  137.5095  164.9662 O.2     1  UNL1       -0.4478
      7 C         141.4529  139.7418  165.4655 C.ar    1  UNL1        0.0357
      8 C         140.9342  140.2869  166.7630 C.ar    1  UNL1        0.0007
      9 C         141.7248  141.3173  167.5133 C.ar    1  UNL1        0.0013
     10 C         143.0344  141.8027  166.9660 C.ar    1  UNL1        0.0031
     11 C         143.5532  141.2576  165.6684 C.ar    1  UNL1        0.0366
     12 C         142.7624  140.2271  164.9181 C.ar    1  UNL1        0.1360
     13 O         143.2812  139.6821  163.6205 O.3     1  UNL1       -0.4826
     14 C         142.4905  138.6516  162.8703 C.3     1  UNL1        0.1395
     15 C         143.7148  138.8850  162.0356 C.3     1  UNL1        0.0404
     16 C         143.2242  137.8807  161.0351 C.3     1  UNL1        0.0072
     17 C         141.9999  137.6473  161.8698 C.3     1  UNL1        0.0404
     18 C         141.1810  138.1663  163.4176 C.3     1  UNL1        0.1141
     19 C         141.4016  138.4537  163.6269 C.3     1  UNL1        0.1501
     20 O         141.1698  138.1516  163.4069 O.3     1  UNL1       -0.3532
     21 C         141.4016  138.4537  163.6269 C.3     1  UNL1        0.1501
     22 H         137.9507  139.1882  168.0205 H       1  UNL1        0.1466
     23 H         136.9313  138.0273  167.2988 H       1  UNL1        0.1466
     24 C         141.2061  141.8624  168.8109 C.ar    1  UNL1        0.0217
     25 C         140.4884  143.1793  168.8378 C.ar    1  UNL1        0.0030
     26 C         139.9696  143.7243  170.1354 C.ar    1  UNL1        0.0207
     27 C         140.1685  142.9525  171.4061 C.ar    1  UNL1        0.0988
     28 N         140.8861  141.6356  171.3792 N.ar    1  UNL1       -0.2399
     29 C         141.4049  141.0905  170.0817 C.ar    1  UNL1        0.1526
     30 C         142.1226  139.7736  170.0548 C.3     1  UNL1        0.4348
     31 F         142.8403  138.4567  170.0279 F       1  UNL1       -0.1644
     32 F         143.4386  140.4892  170.1319 F       1  UNL1       -0.1644
     33 F         140.8065  139.0579  169.9776 F       1  UNL1       -0.1644
@<TRIPOS>BOND
     1     1     2    1
     2     2     3    2
     3     3     4    1
     4     4     5    1
     5     5     6    1
     6     4     7    1
     7     7     8   ar
     8     8     9   ar
     9     9    24    1
    10    24    25   ar
    11    25    26   ar
    12    26    27   ar
    13    27    28   ar
    14    28    29   ar
    15    29    30    1
    16    30    31    1
    17    30    32    1
    18    30    33    1
    19     9    10   ar
    20    10    11   ar
    21    11    12   ar
    22    12    13    1
    23    13    14    1
    24    14    15    1
    25    15    16    1
    26    16    17    1
    27    14    18    1
    28    18    19    1
    29    19    20    1
    30    20    21    1
    31     6     2    1
    32    12     7   ar
    33    17    14    1
    34    21    18    1
    35    18     4    1
    36    29    24   ar
    37     1    22    1
    38     1    23    1
@<TRIPOS>MOLECULE
*****
 33 38 0 0 0
SMALL
GASTEIGER

@<TRIPOS>ATOM
      1 N         145.9951  141.3575  164.2229 N.pl3   1  UNL1       -0.3133
      2 C         144.9970  142.1049  163.3892 C.2     1  UNL1        0.2770
      3 N         143.6284  142.5354  163.8271 N.2     1  UNL1       -0.2202
      4 C         142.9778  143.2496  162.6798 C.3     1  UNL1        0.1580
      5 C         143.9444  143.2606  161.5327 C.3     1  UNL1        0.2351
      6 O         145.1923  142.5531  161.9711 O.2     1  UNL1       -0.4478
      7 C         142.1210  143.1605  163.9077 C.ar    1  UNL1        0.0357
      8 C         142.6397  142.4732  165.1360 C.ar    1  UNL1        0.0007
      9 C         141.7829  142.3841  166.3639 C.ar    1  UNL1        0.0013
     10 C         140.4073  142.9823  166.3637 C.ar    1  UNL1        0.0031
     11 C         139.8886  143.6696  165.1354 C.ar    1  UNL1        0.0366
     12 C         140.7455  143.7587  163.9074 C.ar    1  UNL1        0.1360
     13 O         140.2268  144.4460  162.6792 O.3     1  UNL1       -0.4826
     14 C         141.0836  144.5351  161.4513 C.3     1  UNL1        0.1395
     15 C         139.8054  145.2289  161.0840 C.3     1  UNL1        0.0404
     16 C         140.3500  145.5071  159.7142 C.3     1  UNL1        0.0072
     17 C         141.6282  144.8132  160.0815 C.3     1  UNL1        0.0404
     18 C         142.4591  143.9369  161.4516 C.3     1  UNL1        0.1141
     19 C         142.2201  143.9120  161.7941 C.3     1  UNL1        0.1501
     20 O         142.4713  143.9381  161.4341 O.3     1  UNL1       -0.3532
     21 C         142.2201  143.9120  161.7941 C.3     1  UNL1        0.1501
     22 H         145.7733  141.1060  165.1486 H       1  UNL1        0.1466
     23 H         146.8720  141.1185  163.8445 H       1  UNL1        0.1466
     24 C         142.3016  141.6968  167.5922 C.ar    1  UNL1        0.0217
     25 C         142.8313  142.5072  168.7379 C.ar    1  UNL1        0.0030
     26 C         143.3500  141.8199  169.9661 C.ar    1  UNL1        0.0207
     27 C         143.3391  140.3222  170.0486 C.ar    1  UNL1        0.0988
     28 N         142.8094  139.5117  168.9029 N.ar    1  UNL1       -0.2399
     29 C         142.2907  140.1990  167.6746 C.ar    1  UNL1        0.1526
     30 C         141.7610  139.3887  166.5289 C.3     1  UNL1        0.4348
     31 F         141.2313  138.5783  165.3831 F       1  UNL1       -0.1644
     32 F         140.3711  139.5225  167.0767 F       1  UNL1       -0.1644
     33 F         143.1510  139.2548  165.9810 F       1  UNL1       -0.1644
@<TRIPOS>BOND
     1     1     2    1
     2     2     3    2
     3     3     4    1
     4     4     5    1
     5     5     6    1
     6     4     7    1
     7     7     8   ar
     8     8     9   ar
     9     9    24    1
    10    24    25   ar
    11    25    26   ar
    12    26    27   ar
    13    27    28   ar
    14    28    29   ar
    15    29    30    1
    16    30    31    1
    17    30    32    1
    18    30    33    1
    19     9    10   ar
    20    10    11   ar
    21    11    12   ar
    22    12    13    1
    23    13    14    1
    24    14    15    1
    25    15    16    1
    26    16    17    1
    27    14    18    1
    28    18    19    1
    29    19    20    1
    30    20    21    1
    31     6     2    1
    32    12     7   ar
    33    17    14    1
    34    21    18    1
    35    18     4    1
    36    29    24   ar
    37     1    22    1
    38     1    23    1
@<TRIPOS>MOLECULE
*****
 33 38 0 0 0
SMALL
GASTEIGER

@<TRIPOS>ATOM
      1 N         138.7459  139.7419  162.8923 N.pl3   1  UNL1       -0.3133
      2 C         139.0125  139.8611  164.3636 C.2     1  UNL1        0.2770
      3 N         140.1905  140.5433  164.9939 N.2     1  UNL1       -0.2202
      4 C         140.0540  140.4228  166.4827 C.3     1  UNL1        0.1580
      5 C         138.7917  139.6661  166.7727 C.3     1  UNL1        0.2351
      6 O         138.1480  139.3189  165.4630 O.2     1  UNL1       -0.4478
      7 C         141.2814  141.1629  166.0405 C.ar    1  UNL1        0.0357
      8 C         141.5513  141.3618  164.5784 C.ar    1  UNL1        0.0007
      9 C         142.7787  142.1019  164.1362 C.ar    1  UNL1        0.0013
     10 C         143.7364  142.6431  165.1561 C.ar    1  UNL1        0.0031
     11 C         143.4665  142.4442  166.6181 C.ar    1  UNL1        0.0366
     12 C         142.2390  141.7040  167.0603 C.ar    1  UNL1        0.1360
     13 O         141.9692  141.5051  168.5224 O.3     1  UNL1       -0.4826
     14 C         140.7417  140.7650  168.9646 C.3     1  UNL1        0.1395
     15 C         141.4430  141.1474  170.2343 C.3     1  UNL1        0.0404
     16 C         140.3601  140.4837  171.0323 C.3     1  UNL1        0.0072
     17 C         139.6588  140.1012  169.7626 C.3     1  UNL1        0.0404
     18 C         139.7841  140.2239  167.9448 C.3     1  UNL1        0.1141
     19 C         140.1266  140.4303  167.8214 C.3     1  UNL1        0.1501
     20 O         139.7666  140.2133  167.9511 O.3     1  UNL1       -0.3532
     21 C         140.1266  140.4303  167.8214 C.3     1  UNL1        0.1501
     22 H         139.3759  140.1329  162.2447 H       1  UNL1        0.1466
     23 H         137.9409  139.2727  162.5744 H       1  UNL1        0.1466
     24 C         143.0486  142.3009  162.6742 C.ar    1  UNL1        0.0217
     25 C         143.5957  141.1718  161.8521 C.ar    1  UNL1        0.0030
     26 C         143.8656  141.3708  160.3900 C.ar    1  UNL1        0.0207
     27 C         143.5883  142.6987  159.7501 C.ar    1  UNL1        0.0988
     28 N         143.0411  143.8278  160.5722 N.ar    1  UNL1       -0.2399
     29 C         142.7712  143.6289  162.0342 C.ar    1  UNL1        0.1526
     30 C         142.2241  144.7579  162.8563 C.3     1  UNL1        0.4348
     31 F         141.6769  145.8870  163.6785 F       1  UNL1       -0.1644
     32 F         143.6183  145.2512  163.1068 F       1  UNL1       -0.1644
     33 F         140.8298  144.2646  162.6059 F       1  UNL1       -0.1644
@<TRIPOS>BOND
     1     1     2    1
     2     2     3    2
     3     3     4    1
     4     4     5    1
     5     5     6    1
     6     4     7    1
     7     7     8   ar
     8     8     9   ar
     9     9    24    1
    10    24    25   ar
    11    25    26   ar
    12    26    27   ar
    13    27    28   ar
    14    28    29   ar
    15    29    30    1
    16    30    31    1
    17    30    32    1
    18    30    33    1
    19     9    10   ar
    20    10    11   ar
    21    11    12   ar
    22    12    13    1
    23    13    14    1
    24    14    15    1
    25    15    16    1
    26    16    17    1
    27    14    18    1
    28    18    19    1
    29    19    20    1
    30    20    21    1
    31     6     2    1
    32    12     7   ar
    33    17    14    1
    34    21    18    1
    35    18     4    1
    36    29    24   ar
    37     1    22    1
    38     1    23    1
@<TRIPOS>MOLECULE
*****
 33 38 0 0 0
SMALL
GASTEIGER

@<TRIPOS>ATOM
      1 N         140.1686  143.1963  163.0586 N.pl3   1  UNL1       -0.3133
      2 C         140.2351  143.0367  164.5486 C.2     1  UNL1        0.2770
      3 N         140.9581  141.9498  165.2876 N.2     1  UNL1       -0.2202
      4 C         140.7601  142.1773  166.7569 C.3     1  UNL1        0.1580
      5 C         139.9147  143.4048  166.9260 C.3     1  UNL1        0.2351
      6 O         139.5902  143.9359  165.5613 O.2     1  UNL1       -0.4478
      7 C         141.5939  140.9733  166.4328 C.ar    1  UNL1        0.0357
      8 C         141.8771  140.6198  165.0028 C.ar    1  UNL1        0.0007
      9 C         142.7109  139.4158  164.6788 C.ar    1  UNL1        0.0013
     10 C         143.2616  138.5651  165.7848 C.ar    1  UNL1        0.0031
     11 C         142.9785  138.9186  167.2148 C.ar    1  UNL1        0.0366
     12 C         142.1446  140.1227  167.5388 C.ar    1  UNL1        0.1360
     13 O         141.8615  140.4761  168.9688 O.3     1  UNL1       -0.4826
     14 C         141.0277  141.6801  169.2928 C.3     1  UNL1        0.1395
     15 C         141.3927  141.0912  170.6233 C.3     1  UNL1        0.0404
     16 C         140.6273  142.1800  171.3152 C.3     1  UNL1        0.0072
     17 C         140.2622  142.7689  169.9848 C.3     1  UNL1        0.0404
     18 C         140.4770  142.5307  168.1869 C.3     1  UNL1        0.1141
     19 C         140.7096  142.1948  168.0965 C.3     1  UNL1        0.1501
     20 O         140.4651  142.5479  168.1915 O.3     1  UNL1       -0.3532
     21 C         140.7096  142.1948  168.0965 C.3     1  UNL1        0.1501
     22 H         140.6273  142.5510  162.4735 H       1  UNL1        0.1466
     23 H         139.6662  143.9464  162.6658 H       1  UNL1        0.1466
     24 C         142.9940  139.0623  163.2488 C.ar    1  UNL1        0.0217
     25 C         142.1503  138.0392  162.5479 C.ar    1  UNL1        0.0030
     26 C         142.4334  137.6857  161.1179 C.ar    1  UNL1        0.0207
     27 C         143.5602  138.3554  160.3887 C.ar    1  UNL1        0.0988
     28 N         144.4040  139.3787  161.0896 N.ar    1  UNL1       -0.2399
     29 C         144.1209  139.7321  162.5196 C.ar    1  UNL1        0.1526
     30 C         144.9646  140.7553  163.2205 C.3     1  UNL1        0.4348
     31 F         145.8084  141.7785  163.9214 F       1  UNL1       -0.1644
     32 F         145.6370  139.6656  164.0018 F       1  UNL1       -0.1644
     33 F         144.2922  141.8450  162.4392 F       1  UNL1       -0.1644
@<TRIPOS>BOND
     1     1     2    1
     2     2     3    2
     3     3     4    1
     4     4     5    1
     5     5     6    1
     6     4     7    1
     7     7     8   ar
     8     8     9   ar
     9     9    24    1
    10    24    25   ar
    11    25    26   ar
    12    26    27   ar
    13    27    28   ar
    14    28    29   ar
    15    29    30    1
    16    30    31    1
    17    30    32    1
    18    30    33    1
    19     9    10   ar
    20    10    11   ar
    21    11    12   ar
    22    12    13    1
    23    13    14    1
    24    14    15    1
    25    15    16    1
    26    16    17    1
    27    14    18    1
    28    18    19    1
    29    19    20    1
    30    20    21    1
    31     6     2    1
    32    12     7   ar
    33    17    14    1
    34    21    18    1
    35    18     4    1
    36    29    24   ar
    37     1    22    1
    38     1    23    1
@<TRIPOS>MOLECULE
*****
 33 38 0 0 0
SMALL
GASTEIGER

@<TRIPOS>ATOM
      1 N         143.3483  139.5590  162.0513 N.pl3   1  UNL1       -0.3133
      2 C         143.1290  139.5667  163.5352 C.2     1  UNL1        0.2770
      3 N         142.3028  140.5585  164.2993 N.2     1  UNL1       -0.2202
      4 C         142.3606  140.1888  165.7518 C.3     1  UNL1        0.1580
      5 C         143.2226  138.9684  165.8854 C.3     1  UNL1        0.2351
      6 O         143.6975  138.5840  164.5155 O.2     1  UNL1       -0.4478
      7 C         141.5263  141.4015  165.4637 C.ar    1  UNL1        0.0357
      8 C         141.3760  141.8909  164.0537 C.ar    1  UNL1        0.0007
      9 C         140.5417  143.1036  163.7657 C.ar    1  UNL1        0.0013
     10 C         139.8576  143.8272  164.8876 C.ar    1  UNL1        0.0031
     11 C         140.0079  143.3379  166.2975 C.ar    1  UNL1        0.0366
     12 C         140.8423  142.1250  166.5856 C.ar    1  UNL1        0.1360
     13 O         140.9926  141.6357  167.9955 O.3     1  UNL1       -0.4826
     14 C         141.8269  140.4229  168.2836 C.3     1  UNL1        0.1395
     15 C         141.3133  140.8674  169.6211 C.3     1  UNL1        0.0404
     16 C         142.0395  139.7309  170.2777 C.3     1  UNL1        0.0072
     17 C         142.5531  139.2864  168.9402 C.3     1  UNL1        0.0404
     18 C         142.5109  139.6994  167.1617 C.3     1  UNL1        0.1141
     19 C         142.2781  140.0378  167.0814 C.3     1  UNL1        0.1501
     20 O         142.5228  139.6822  167.1658 O.3     1  UNL1       -0.3532
     21 C         142.2781  140.0378  167.0814 C.3     1  UNL1        0.1501
     22 H         142.9303  140.2501  161.4884 H       1  UNL1        0.1466
     23 H         143.9102  138.8628  161.6404 H       1  UNL1        0.1466
     24 C         140.3914  143.5930  162.3557 C.ar    1  UNL1        0.0217
     25 C         141.4477  144.4681  161.7489 C.ar    1  UNL1        0.0030
     26 C         141.2974  144.9574  160.3390 C.ar    1  UNL1        0.0207
     27 C         140.0908  144.5716  159.5358 C.ar    1  UNL1        0.0988
     28 N         139.0344  143.6964  160.1426 N.ar    1  UNL1       -0.2399
     29 C         139.1847  143.2071  161.5525 C.ar    1  UNL1        0.1526
     30 C         138.1284  142.3319  162.1593 C.3     1  UNL1        0.4348
     31 F         137.0720  141.4566  162.7661 F       1  UNL1       -0.1644
     32 F         138.8582  141.1146  161.6741 F       1  UNL1       -0.1644
     33 F         137.3985  143.5492  162.6446 F       1  UNL1       -0.1644
@<TRIPOS>BOND
     1     1     2    1
     2     2     3    2
     3     3     4    1
     4     4     5    1
     5     5     6    1
     6     4     7    1
     7     7     8   ar
     8     8     9   ar
     9     9    24    1
    10    24    25   ar
    11    25    26   ar
    12    26    27   ar
    13    27    28   ar
    14    28    29   ar
    15    29    30    1
    16    30    31    1
    17    30    32    1
    18    30    33    1
    19     9    10   ar
    20    10    11   ar
    21    11    12   ar
    22    12    13    1
    23    13    14    1
    24    14    15    1
    25    15    16    1
    26    16    17    1
    27    14    18    1
    28    18    19    1
    29    19    20    1
    30    20    21    1
    31     6     2    1
    32    12     7   ar
    33    17    14    1
    34    21    18    1
    35    18     4    1
    36    29    24   ar
    37     1    22    1
    38     1    23    1
@<TRIPOS>MOLECULE
*****
 33 38 0 0 0
SMALL
GASTEIGER

@<TRIPOS>ATOM
      1 N         138.8505  137.6153  163.2091 N.pl3   1  UNL1       -0.3133
      2 C         138.9719  138.2908  164.5428 C.2     1  UNL1        0.2770
      3 N         139.8623  139.4546  164.8639 N.2     1  UNL1       -0.2202
      4 C         139.6651  139.8042  166.3091 C.3     1  UNL1        0.1580
      5 C         138.6528  138.8565  166.8813 C.3     1  UNL1        0.2351
      6 O         138.2244  137.9213  165.7896 O.2     1  UNL1       -0.4478
      7 C         140.6591  140.6760  165.6007 C.ar    1  UNL1        0.0357
      8 C         140.9598  140.4443  164.1496 C.ar    1  UNL1        0.0007
      9 C         141.9539  141.3161  163.4411 C.ar    1  UNL1        0.0013
     10 C         142.6472  142.4196  164.1839 C.ar    1  UNL1        0.0031
     11 C         142.3464  142.6513  165.6351 C.ar    1  UNL1        0.0366
     12 C         141.3524  141.7795  166.3435 C.ar    1  UNL1        0.1360
     13 O         141.0516  142.0111  167.7946 O.3     1  UNL1       -0.4826
     14 C         140.0576  141.1394  168.5031 C.3     1  UNL1        0.1395
     15 C         140.5338  142.1096  169.5432 C.3     1  UNL1        0.0404
     16 C         139.6323  141.4670  170.5554 C.3     1  UNL1        0.0072
     17 C         139.1561  140.4968  169.5152 C.3     1  UNL1        0.0404
     18 C         139.3643  140.0359  167.7603 C.3     1  UNL1        0.1141
     19 C         139.6416  140.2791  167.5627 C.3     1  UNL1        0.1501
     20 O         139.3502  140.0235  167.7704 O.3     1  UNL1       -0.3532
     21 C         139.6416  140.2791  167.5627 C.3     1  UNL1        0.1501
     22 H         139.3860  137.9323  162.4462 H       1  UNL1        0.1466
     23 H         138.2352  136.8550  163.0966 H       1  UNL1        0.1466
     24 C         142.2546  141.0844  161.9900 C.ar    1  UNL1        0.0217
     25 C         141.3783  141.6934  160.9359 C.ar    1  UNL1        0.0030
     26 C         141.6790  141.4617  159.4847 C.ar    1  UNL1        0.0207
     27 C         142.8561  140.6210  159.0877 C.ar    1  UNL1        0.0988
     28 N         143.7325  140.0120  160.1418 N.ar    1  UNL1       -0.2399
     29 C         143.4318  140.2437  161.5929 C.ar    1  UNL1        0.1526
     30 C         144.3081  139.6347  162.6470 C.3     1  UNL1        0.4348
     31 F         145.1844  139.0256  163.7012 F       1  UNL1       -0.1644
     32 F         143.4153  138.4302  162.6934 F       1  UNL1       -0.1644
     33 F         145.2009  140.8392  162.6007 F       1  UNL1       -0.1644
@<TRIPOS>BOND
     1     1     2    1
     2     2     3    2
     3     3     4    1
     4     4     5    1
     5     5     6    1
     6     4     7    1
     7     7     8   ar
     8     8     9   ar
     9     9    24    1
    10    24    25   ar
    11    25    26   ar
    12    26    27   ar
    13    27    28   ar
    14    28    29   ar
    15    29    30    1
    16    30    31    1
    17    30    32    1
    18    30    33    1
    19     9    10   ar
    20    10    11   ar
    21    11    12   ar
    22    12    13    1
    23    13    14    1
    24    14    15    1
    25    15    16    1
    26    16    17    1
    27    14    18    1
    28    18    19    1
    29    19    20    1
    30    20    21    1
    31     6     2    1
    32    12     7   ar
    33    17    14    1
    34    21    18    1
    35    18     4    1
    36    29    24   ar
    37     1    22    1
    38     1    23    1
@<TRIPOS>MOLECULE
*****
 33 38 0 0 0
SMALL
GASTEIGER

@<TRIPOS>ATOM
      1 N         138.9515  145.0232  166.1583 N.pl3   1  UNL1       -0.3133
      2 C         138.6442  143.9035  165.2088 C.2     1  UNL1        0.2770
      3 N         139.2016  142.5124  165.2760 N.2     1  UNL1       -0.2202
      4 C         138.6275  141.7273  164.1341 C.3     1  UNL1        0.1580
      5 C         137.7153  142.6332  163.3611 C.3     1  UNL1        0.2351
      6 O         137.7256  143.9781  164.0253 O.2     1  UNL1       -0.4478
      7 C         139.5668  140.9436  165.0021 C.ar    1  UNL1        0.0357
      8 C         140.2186  141.5982  166.1839 C.ar    1  UNL1        0.0007
      9 C         141.1579  140.8144  167.0519 C.ar    1  UNL1        0.0013
     10 C         141.4455  139.3761  166.7380 C.ar    1  UNL1        0.0031
     11 C         140.7937  138.7215  165.5562 C.ar    1  UNL1        0.0366
     12 C         139.8544  139.5053  164.6882 C.ar    1  UNL1        0.1360
     13 O         139.2026  138.8507  163.5063 O.3     1  UNL1       -0.4826
     14 C         138.2633  139.6345  162.6384 C.3     1  UNL1        0.1395
     15 C         138.3033  138.2644  162.0289 C.3     1  UNL1        0.0404
     16 C         137.3415  138.7087  160.9669 C.3     1  UNL1        0.0072
     17 C         137.3015  140.0788  161.5764 C.3     1  UNL1        0.0404
     18 C         137.9758  141.0728  162.9523 C.3     1  UNL1        0.1141
     19 C         138.2378  140.8541  163.1944 C.3     1  UNL1        0.1501
     20 O         137.9624  141.0839  162.9399 O.3     1  UNL1       -0.3532
     21 C         138.2378  140.8541  163.1944 C.3     1  UNL1        0.1501
     22 H         139.5709  144.8759  166.9093 H       1  UNL1        0.1466
     23 H         138.5339  145.9056  166.0306 H       1  UNL1        0.1466
     24 C         141.8096  141.4690  168.2337 C.ar    1  UNL1        0.0217
     25 C         143.1364  142.1507  168.0764 C.ar    1  UNL1        0.0030
     26 C         143.7882  142.8053  169.2582 C.ar    1  UNL1        0.0207
     27 C         143.1131  142.7781  170.5974 C.ar    1  UNL1        0.0988
     28 N         141.7863  142.0964  170.7548 N.ar    1  UNL1       -0.2399
     29 C         141.1345  141.4418  169.5730 C.ar    1  UNL1        0.1526
     30 C         139.8077  140.7601  169.7303 C.3     1  UNL1        0.4348
     31 F         138.4808  140.0784  169.8877 F       1  UNL1       -0.1644
     32 F         140.5033  139.4386  169.8702 F       1  UNL1       -0.1644
     33 F         139.1120  142.0818  169.5905 F       1  UNL1       -0.1644
@<TRIPOS>BOND
     1     1     2    1
     2     2     3    2
     3     3     4    1
     4     4     5    1
     5     5     6    1
     6     4     7    1
     7     7     8   ar
     8     8     9   ar
     9     9    24    1
    10    24    25   ar
    11    25    26   ar
    12    26    27   ar
    13    27    28   ar
    14    28    29   ar
    15    29    30    1
    16    30    31    1
    17    30    32    1
    18    30    33    1
    19     9    10   ar
    20    10    11   ar
    21    11    12   ar
    22    12    13    1
    23    13    14    1
    24    14    15    1
    25    15    16    1
    26    16    17    1
    27    14    18    1
    28    18    19    1
    29    19    20    1
    30    20    21    1
    31     6     2    1
    32    12     7   ar
    33    17    14    1
    34    21    18    1
    35    18     4    1
    36    29    24   ar
    37     1    22    1
    38     1    23    1
