@<TRIPOS>MOLECULE
*****
 25 28 0 0 0
SMALL
GASTEIGER

@<TRIPOS>ATOM
      1 C         140.5107  145.8742  158.2752 C.3     1  UNL1        0.0311
      2 C         140.7126  145.0966  159.5419 C.ar    1  UNL1       -0.0203
      3 C         140.0885  145.5709  160.8207 C.ar    1  UNL1       -0.0027
      4 C         140.2904  144.7933  162.0874 C.ar    1  UNL1        0.0184
      5 C         141.1165  143.5414  162.0753 C.ar    1  UNL1        0.0789
      6 C         141.7407  143.0671  160.7965 C.ar    1  UNL1        0.0981
      7 C         141.5388  143.8447  159.5298 C.ar    1  UNL1        0.0164
      8 N         142.4981  141.8061  161.0902 N.ar    1  UNL1       -0.2295
      9 C         142.3420  141.5011  162.5505 C.ar    1  UNL1        0.1370
     10 N         141.4882  142.5736  163.1593 N.ar    1  UNL1       -0.3095
     11 C         142.9356  140.3293  163.2749 C.3     1  UNL1        0.1370
     12 N         142.1004  139.1129  163.5446 N.3     1  UNL1       -0.2677
     13 C         141.0628  138.5350  162.6284 C.3     1  UNL1        0.0725
     14 C         140.4773  137.3258  163.2954 C.3     1  UNL1        0.0187
     15 C         141.1531  137.1563  164.6237 C.3     1  UNL1        0.0174
     16 C         142.1563  138.2608  164.7778 C.3     1  UNL1        0.0580
     17 C         143.0571  138.4754  165.9579 C.3     1  UNL1        0.0173
     18 C         141.0779  142.6626  164.5994 C.3     1  UNL1        0.1339
     19 C         140.2159  141.5927  165.2012 C.ar    1  UNL1        0.0005
     20 C         139.0793  141.0132  164.4123 C.ar    1  UNL1       -0.0015
     21 C         138.2173  139.9433  165.0142 C.ar    1  UNL1        0.0111
     22 C         138.4919  139.4528  166.4048 C.ar    1  UNL1        0.0577
     23 CL        137.6298  138.3829  167.0066 Cl      1  UNL1       -0.0822
     24 C         139.6285  140.0323  167.1937 C.ar    1  UNL1        0.0111
     25 C         140.4905  141.1022  166.5919 C.ar    1  UNL1       -0.0015
@<TRIPOS>BOND
     1     1     2    1
     2     2     3   ar
     3     3     4   ar
     4     4     5   ar
     5     5     6   ar
     6     6     7   ar
     7     6     8   ar
     8     8     9   ar
     9     9    11    1
    10    11    12    1
    11    12    13    1
    12    13    14    1
    13    14    15    1
    14    15    16    1
    15    16    17    1
    16     9    10   ar
    17    10    18    1
    18    18    19    1
    19    19    20   ar
    20    20    21   ar
    21    21    22   ar
    22    22    23    1
    23    22    24   ar
    24    24    25   ar
    25     7     2   ar
    26    16    12    1
    27    25    19   ar
    28    10     5   ar
@<TRIPOS>MOLECULE
*****
 25 28 0 0 0
SMALL
GASTEIGER

@<TRIPOS>ATOM
      1 C         137.3172  137.2658  166.8608 C.3     1  UNL1        0.0311
      2 C         138.4492  138.0862  166.3173 C.ar    1  UNL1       -0.0203
      3 C         138.6580  139.4903  166.8018 C.ar    1  UNL1       -0.0027
      4 C         139.7900  140.3108  166.2584 C.ar    1  UNL1        0.0184
      5 C         140.7133  139.7271  165.2303 C.ar    1  UNL1        0.0789
      6 C         140.5045  138.3230  164.7458 C.ar    1  UNL1        0.0981
      7 C         139.3725  137.5026  165.2892 C.ar    1  UNL1        0.0164
      8 N         141.5686  138.0191  163.7331 N.ar    1  UNL1       -0.2295
      9 C         142.4349  139.2354  163.5918 C.ar    1  UNL1        0.1370
     10 N         141.9063  140.2910  164.5172 N.ar    1  UNL1       -0.3095
     11 C         143.6216  139.3721  162.6845 C.3     1  UNL1        0.1370
     12 N         143.8181  140.6299  161.8911 N.3     1  UNL1       -0.2677
     13 C         143.0470  141.0305  160.6684 C.3     1  UNL1        0.0725
     14 C         143.5725  142.3560  160.2027 C.3     1  UNL1        0.0187
     15 C         144.6683  142.7746  161.1376 C.3     1  UNL1        0.0174
     16 C         144.8201  141.7077  162.1811 C.3     1  UNL1        0.0580
     17 C         145.8016  141.7171  163.3154 C.3     1  UNL1        0.0173
     18 C         142.4716  141.6687  164.6976 C.3     1  UNL1        0.1339
     19 C         141.8465  142.8344  163.9903 C.ar    1  UNL1        0.0005
     20 C         140.7079  142.6120  163.0394 C.ar    1  UNL1       -0.0015
     21 C         140.0829  143.7777  162.3321 C.ar    1  UNL1        0.0111
     22 C         140.5963  145.1659  162.5756 C.ar    1  UNL1        0.0577
     23 CL        139.9712  146.3316  161.8682 Cl      1  UNL1       -0.0822
     24 C         141.7349  145.3883  163.5265 C.ar    1  UNL1        0.0111
     25 C         142.3600  144.2226  164.2339 C.ar    1  UNL1       -0.0015
@<TRIPOS>BOND
     1     1     2    1
     2     2     3   ar
     3     3     4   ar
     4     4     5   ar
     5     5     6   ar
     6     6     7   ar
     7     6     8   ar
     8     8     9   ar
     9     9    11    1
    10    11    12    1
    11    12    13    1
    12    13    14    1
    13    14    15    1
    14    15    16    1
    15    16    17    1
    16     9    10   ar
    17    10    18    1
    18    18    19    1
    19    19    20   ar
    20    20    21   ar
    21    21    22   ar
    22    22    23    1
    23    22    24   ar
    24    24    25   ar
    25     7     2   ar
    26    16    12    1
    27    25    19   ar
    28    10     5   ar
@<TRIPOS>MOLECULE
*****
 25 28 0 0 0
SMALL
GASTEIGER

@<TRIPOS>ATOM
      1 C         140.0989  139.8069  170.9084 C.3     1  UNL1        0.0311
      2 C         140.3779  139.9931  169.4464 C.ar    1  UNL1       -0.0203
      3 C         139.2448  140.2166  168.4892 C.ar    1  UNL1       -0.0027
      4 C         139.5238  140.4027  167.0271 C.ar    1  UNL1        0.0184
      5 C         140.9358  140.3653  166.5223 C.ar    1  UNL1        0.0789
      6 C         142.0688  140.1418  167.4795 C.ar    1  UNL1        0.0981
      7 C         141.7898  139.9557  168.9415 C.ar    1  UNL1        0.0164
      8 N         143.3475  140.1543  166.6953 N.ar    1  UNL1       -0.2295
      9 C         143.0047  140.3856  165.2535 C.ar    1  UNL1        0.1370
     10 N         141.5142  140.5160  165.1465 N.ar    1  UNL1       -0.3095
     11 C         143.9810  140.4715  164.1178 C.3     1  UNL1        0.1370
     12 N         144.0232  141.6987  163.2564 N.3     1  UNL1       -0.2677
     13 C         143.8719  141.7342  161.7645 C.3     1  UNL1        0.0725
     14 C         143.9794  143.1633  161.3216 C.3     1  UNL1        0.0187
     15 C         144.1973  144.0110  162.5398 C.3     1  UNL1        0.0174
     16 C         144.2244  143.1058  163.7356 C.3     1  UNL1        0.0580
     17 C         144.4185  143.5328  165.1604 C.3     1  UNL1        0.0173
     18 C         140.7382  140.7551  163.8853 C.3     1  UNL1        0.1339
     19 C         140.5316  142.1543  163.3857 C.ar    1  UNL1        0.0005
     20 C         140.2197  142.3955  161.9385 C.ar    1  UNL1       -0.0015
     21 C         140.0130  143.7947  161.4389 C.ar    1  UNL1        0.0111
     22 C         140.1182  144.9526  162.3865 C.ar    1  UNL1        0.0577
     23 CL        139.9115  146.3518  161.8868 Cl      1  UNL1       -0.0822
     24 C         140.4301  144.7114  163.8337 C.ar    1  UNL1        0.0111
     25 C         140.6368  143.3122  164.3333 C.ar    1  UNL1       -0.0015
@<TRIPOS>BOND
     1     1     2    1
     2     2     3   ar
     3     3     4   ar
     4     4     5   ar
     5     5     6   ar
     6     6     7   ar
     7     6     8   ar
     8     8     9   ar
     9     9    11    1
    10    11    12    1
    11    12    13    1
    12    13    14    1
    13    14    15    1
    14    15    16    1
    15    16    17    1
    16     9    10   ar
    17    10    18    1
    18    18    19    1
    19    19    20   ar
    20    20    21   ar
    21    21    22   ar
    22    22    23    1
    23    22    24   ar
    24    24    25   ar
    25     7     2   ar
    26    16    12    1
    27    25    19   ar
    28    10     5   ar
@<TRIPOS>MOLECULE
*****
 25 28 0 0 0
SMALL
GASTEIGER

@<TRIPOS>ATOM
      1 C         136.9540  137.7167  167.3416 C.3     1  UNL1        0.0311
      2 C         138.2227  138.1618  166.6764 C.ar    1  UNL1       -0.0203
      3 C         138.7661  137.3942  165.5079 C.ar    1  UNL1       -0.0027
      4 C         140.0348  137.8393  164.8428 C.ar    1  UNL1        0.0184
      5 C         140.7600  139.0520  165.3462 C.ar    1  UNL1        0.0789
      6 C         140.2165  139.8196  166.5146 C.ar    1  UNL1        0.0981
      7 C         138.9479  139.3745  167.1798 C.ar    1  UNL1        0.0164
      8 N         141.1434  140.9671  166.7870 N.ar    1  UNL1       -0.2295
      9 C         142.2597  140.9087  165.7867 C.ar    1  UNL1        0.1370
     10 N         142.0227  139.7251  164.8963 N.ar    1  UNL1       -0.3095
     11 C         143.4109  141.8659  165.6933 C.3     1  UNL1        0.1370
     12 N         143.5746  142.7254  164.4750 N.3     1  UNL1       -0.2677
     13 C         142.6211  143.7854  164.0092 C.3     1  UNL1        0.0725
     14 C         143.1778  144.3910  162.7549 C.3     1  UNL1        0.0187
     15 C         144.4754  143.7051  162.4454 C.3     1  UNL1        0.0174
     16 C         144.7207  142.6757  163.5085 C.3     1  UNL1        0.0580
     17 C         145.9042  141.7577  163.5906 C.3     1  UNL1        0.0173
     18 C         142.8953  139.2908  163.7561 C.3     1  UNL1        0.1339
     19 C         142.7735  139.9625  162.4204 C.ar    1  UNL1        0.0005
     20 C         141.5786  140.8167  162.1166 C.ar    1  UNL1       -0.0015
     21 C         141.4568  141.4884  160.7809 C.ar    1  UNL1        0.0111
     22 C         142.5301  141.3058  159.7490 C.ar    1  UNL1        0.0577
     23 CL        142.4082  141.9775  158.4133 Cl      1  UNL1       -0.0822
     24 C         143.7250  140.4516  160.0528 C.ar    1  UNL1        0.0111
     25 C         143.8468  139.7799  161.3885 C.ar    1  UNL1       -0.0015
@<TRIPOS>BOND
     1     1     2    1
     2     2     3   ar
     3     3     4   ar
     4     4     5   ar
     5     5     6   ar
     6     6     7   ar
     7     6     8   ar
     8     8     9   ar
     9     9    11    1
    10    11    12    1
    11    12    13    1
    12    13    14    1
    13    14    15    1
    14    15    16    1
    15    16    17    1
    16     9    10   ar
    17    10    18    1
    18    18    19    1
    19    19    20   ar
    20    20    21   ar
    21    21    22   ar
    22    22    23    1
    23    22    24   ar
    24    24    25   ar
    25     7     2   ar
    26    16    12    1
    27    25    19   ar
    28    10     5   ar
@<TRIPOS>MOLECULE
*****
 25 28 0 0 0
SMALL
GASTEIGER

@<TRIPOS>ATOM
      1 C         139.4721  146.5134  161.4825 C.3     1  UNL1        0.0311
      2 C         140.1230  145.5123  162.3903 C.ar    1  UNL1       -0.0203
      3 C         141.4378  144.8986  162.0101 C.ar    1  UNL1       -0.0027
      4 C         142.0887  143.8975  162.9179 C.ar    1  UNL1        0.0184
      5 C         141.4248  143.5102  164.2060 C.ar    1  UNL1        0.0789
      6 C         140.1101  144.1240  164.5863 C.ar    1  UNL1        0.0981
      7 C         139.4591  145.1250  163.6784 C.ar    1  UNL1        0.0164
      8 N         139.6966  143.5513  165.9096 N.ar    1  UNL1       -0.2295
      9 C         140.7559  142.5836  166.3472 C.ar    1  UNL1        0.1370
     10 N         141.8240  142.5582  165.2943 N.ar    1  UNL1       -0.3095
     11 C         140.7484  141.7820  167.6151 C.3     1  UNL1        0.1370
     12 N         141.7355  142.0886  168.7021 N.3     1  UNL1       -0.2677
     13 C         143.0477  141.3962  168.9224 C.3     1  UNL1        0.0725
     14 C         143.7069  142.0211  170.1160 C.3     1  UNL1        0.0187
     15 C         142.8021  143.0999  170.6334 C.3     1  UNL1        0.0174
     16 C         141.5837  143.1416  169.7595 C.3     1  UNL1        0.0580
     17 C         140.4181  144.0728  169.9157 C.3     1  UNL1        0.0173
     18 C         143.0721  141.7268  165.3244 C.3     1  UNL1        0.1339
     19 C         143.2986  140.6758  164.2785 C.ar    1  UNL1        0.0005
     20 C         142.5515  139.3769  164.3463 C.ar    1  UNL1       -0.0015
     21 C         142.7780  138.3259  163.3003 C.ar    1  UNL1        0.0111
     22 C         143.7516  138.5738  162.1865 C.ar    1  UNL1        0.0577
     23 CL        143.9781  137.5227  161.1405 Cl      1  UNL1       -0.0822
     24 C         144.4987  139.8727  162.1186 C.ar    1  UNL1        0.0111
     25 C         144.2722  140.9237  163.1646 C.ar    1  UNL1       -0.0015
@<TRIPOS>BOND
     1     1     2    1
     2     2     3   ar
     3     3     4   ar
     4     4     5   ar
     5     5     6   ar
     6     6     7   ar
     7     6     8   ar
     8     8     9   ar
     9     9    11    1
    10    11    12    1
    11    12    13    1
    12    13    14    1
    13    14    15    1
    14    15    16    1
    15    16    17    1
    16     9    10   ar
    17    10    18    1
    18    18    19    1
    19    19    20   ar
    20    20    21   ar
    21    21    22   ar
    22    22    23    1
    23    22    24   ar
    24    24    25   ar
    25     7     2   ar
    26    16    12    1
    27    25    19   ar
    28    10     5   ar
@<TRIPOS>MOLECULE
*****
 25 28 0 0 0
SMALL
GASTEIGER

@<TRIPOS>ATOM
      1 C         139.7225  142.3443  170.3803 C.3     1  UNL1        0.0311
      2 C         140.4154  141.8081  169.1628 C.ar    1  UNL1       -0.0203
      3 C         139.9445  140.5307  168.5333 C.ar    1  UNL1       -0.0027
      4 C         140.6373  139.9945  167.3158 C.ar    1  UNL1        0.0184
      5 C         141.8011  140.7358  166.7276 C.ar    1  UNL1        0.0789
      6 C         142.2721  142.0133  167.3571 C.ar    1  UNL1        0.0981
      7 C         141.5792  142.5495  168.5746 C.ar    1  UNL1        0.0164
      8 N         143.4372  142.5208  166.5601 N.ar    1  UNL1       -0.2295
      9 C         143.6862  141.5569  165.4381 C.ar    1  UNL1        0.1370
     10 N         142.6751  140.4538  165.5417 N.ar    1  UNL1       -0.3095
     11 C         144.7582  141.6754  164.3955 C.3     1  UNL1        0.1370
     12 N         144.3877  141.9299  162.9644 N.3     1  UNL1       -0.2677
     13 C         144.3500  140.9069  161.8682 C.3     1  UNL1        0.0725
     14 C         143.9289  141.5969  160.6046 C.3     1  UNL1        0.0187
     15 C         143.7064  143.0464  160.9200 C.3     1  UNL1        0.0174
     16 C         143.9900  143.2523  162.3786 C.3     1  UNL1        0.0580
     17 C         143.8929  144.5522  163.1208 C.3     1  UNL1        0.0173
     18 C         142.5584  139.2754  164.6209 C.3     1  UNL1        0.1339
     19 C         141.2872  139.0411  163.8599 C.ar    1  UNL1        0.0005
     20 C         140.8643  140.0050  162.7912 C.ar    1  UNL1       -0.0015
     21 C         139.5931  139.7707  162.0303 C.ar    1  UNL1        0.0111
     22 C         138.7447  138.5726  162.3380 C.ar    1  UNL1        0.0577
     23 CL        137.4734  138.3384  161.5770 Cl      1  UNL1       -0.0822
     24 C         139.1675  137.6088  163.4067 C.ar    1  UNL1        0.0111
     25 C         140.4388  137.8430  164.1677 C.ar    1  UNL1       -0.0015
@<TRIPOS>BOND
     1     1     2    1
     2     2     3   ar
     3     3     4   ar
     4     4     5   ar
     5     5     6   ar
     6     6     7   ar
     7     6     8   ar
     8     8     9   ar
     9     9    11    1
    10    11    12    1
    11    12    13    1
    12    13    14    1
    13    14    15    1
    14    15    16    1
    15    16    17    1
    16     9    10   ar
    17    10    18    1
    18    18    19    1
    19    19    20   ar
    20    20    21   ar
    21    21    22   ar
    22    22    23    1
    23    22    24   ar
    24    24    25   ar
    25     7     2   ar
    26    16    12    1
    27    25    19   ar
    28    10     5   ar
@<TRIPOS>MOLECULE
*****
 25 28 0 0 0
SMALL
GASTEIGER

@<TRIPOS>ATOM
      1 C         139.9716  142.5830  170.9643 C.3     1  UNL1        0.0311
      2 C         140.2326  141.8061  169.7080 C.ar    1  UNL1       -0.0203
      3 C         139.3329  140.6670  169.3300 C.ar    1  UNL1       -0.0027
      4 C         139.5939  139.8901  168.0736 C.ar    1  UNL1        0.0184
      5 C         140.7546  140.2523  167.1953 C.ar    1  UNL1        0.0789
      6 C         141.6543  141.3914  167.5733 C.ar    1  UNL1        0.0981
      7 C         141.3933  142.1683  168.8297 C.ar    1  UNL1        0.0164
      8 N         142.7131  141.5157  166.5180 N.ar    1  UNL1       -0.2295
      9 C         142.4677  140.4535  165.4878 C.ar    1  UNL1        0.1370
     10 N         141.2573  139.6726  165.9064 N.ar    1  UNL1       -0.3095
     11 C         143.2885  140.2140  164.2553 C.3     1  UNL1        0.1370
     12 N         142.6549  140.3204  162.8999 N.3     1  UNL1       -0.2677
     13 C         141.8132  141.4599  162.4072 C.3     1  UNL1        0.0725
     14 C         141.3898  141.1497  161.0020 C.3     1  UNL1        0.0187
     15 C         141.9700  139.8184  160.6263 C.3     1  UNL1        0.0174
     16 C         142.7520  139.3058  161.7993 C.3     1  UNL1        0.0580
     17 C         143.4996  138.0069  161.8608 C.3     1  UNL1        0.0173
     18 C         140.6552  138.5153  165.1661 C.3     1  UNL1        0.1339
     19 C         139.7353  138.7630  164.0075 C.ar    1  UNL1        0.0005
     20 C         139.6631  137.7736  162.8823 C.ar    1  UNL1       -0.0015
     21 C         138.7432  138.0213  161.7237 C.ar    1  UNL1        0.0111
     22 C         137.8954  139.2583  161.6902 C.ar    1  UNL1        0.0577
     23 CL        136.9755  139.5058  160.5315 Cl      1  UNL1       -0.0822
     24 C         137.9675  140.2476  162.8154 C.ar    1  UNL1        0.0111
     25 C         138.8875  139.9999  163.9740 C.ar    1  UNL1       -0.0015
@<TRIPOS>BOND
     1     1     2    1
     2     2     3   ar
     3     3     4   ar
     4     4     5   ar
     5     5     6   ar
     6     6     7   ar
     7     6     8   ar
     8     8     9   ar
     9     9    11    1
    10    11    12    1
    11    12    13    1
    12    13    14    1
    13    14    15    1
    14    15    16    1
    15    16    17    1
    16     9    10   ar
    17    10    18    1
    18    18    19    1
    19    19    20   ar
    20    20    21   ar
    21    21    22   ar
    22    22    23    1
    23    22    24   ar
    24    24    25   ar
    25     7     2   ar
    26    16    12    1
    27    25    19   ar
    28    10     5   ar
@<TRIPOS>MOLECULE
*****
 25 28 0 0 0
SMALL
GASTEIGER

@<TRIPOS>ATOM
      1 C         143.5073  141.8677  169.8295 C.3     1  UNL1        0.0311
      2 C         142.5620  141.5181  168.7186 C.ar    1  UNL1       -0.0203
      3 C         141.4985  142.4914  168.3046 C.ar    1  UNL1       -0.0027
      4 C         140.5532  142.1418  167.1937 C.ar    1  UNL1        0.0184
      5 C         140.6714  140.8189  166.4967 C.ar    1  UNL1        0.0789
      6 C         141.7350  139.8456  166.9107 C.ar    1  UNL1        0.0981
      7 C         142.6803  140.1952  168.0216 C.ar    1  UNL1        0.0164
      8 N         141.6096  138.6263  166.0459 N.ar    1  UNL1       -0.2295
      9 C         140.4685  138.8462  165.0975 C.ar    1  UNL1        0.1370
     10 N         139.8887  140.2013  165.3761 N.ar    1  UNL1       -0.3095
     11 C         139.9910  137.8805  164.0536 C.3     1  UNL1        0.1370
     12 N         140.3355  138.1046  162.6110 N.3     1  UNL1       -0.2677
     13 C         141.7117  138.0606  162.0161 C.3     1  UNL1        0.0725
     14 C         141.5910  138.3408  160.5475 C.3     1  UNL1        0.0187
     15 C         140.1401  138.5579  160.2347 C.3     1  UNL1        0.0174
     16 C         139.3641  138.4119  161.5101 C.3     1  UNL1        0.0580
     17 C         137.8777  138.5492  161.6584 C.3     1  UNL1        0.0173
     18 C         138.7296  140.8286  164.6598 C.3     1  UNL1        0.1339
     19 C         138.9051  142.1406  163.9543 C.ar    1  UNL1        0.0005
     20 C         137.7782  143.1299  163.9191 C.ar    1  UNL1       -0.0015
     21 C         137.9536  144.4419  163.2136 C.ar    1  UNL1        0.0111
     22 C         139.2561  144.7647  162.5433 C.ar    1  UNL1        0.0577
     23 CL        139.4315  146.0768  161.8378 Cl      1  UNL1       -0.0822
     24 C         140.3831  143.7755  162.5784 C.ar    1  UNL1        0.0111
     25 C         140.2076  142.4634  163.2840 C.ar    1  UNL1       -0.0015
@<TRIPOS>BOND
     1     1     2    1
     2     2     3   ar
     3     3     4   ar
     4     4     5   ar
     5     5     6   ar
     6     6     7   ar
     7     6     8   ar
     8     8     9   ar
     9     9    11    1
    10    11    12    1
    11    12    13    1
    12    13    14    1
    13    14    15    1
    14    15    16    1
    15    16    17    1
    16     9    10   ar
    17    10    18    1
    18    18    19    1
    19    19    20   ar
    20    20    21   ar
    21    21    22   ar
    22    22    23    1
    23    22    24   ar
    24    24    25   ar
    25     7     2   ar
    26    16    12    1
    27    25    19   ar
    28    10     5   ar
@<TRIPOS>MOLECULE
*****
 25 28 0 0 0
SMALL
GASTEIGER

@<TRIPOS>ATOM
      1 C         140.1184  145.6337  159.2609 C.3     1  UNL1        0.0311
      2 C         140.4709  144.4562  160.1206 C.ar    1  UNL1       -0.0203
      3 C         139.7292  143.1623  159.9611 C.ar    1  UNL1       -0.0027
      4 C         140.0818  141.9848  160.8208 C.ar    1  UNL1        0.0184
      5 C         141.1760  142.1012  161.8402 C.ar    1  UNL1        0.0789
      6 C         141.9177  143.3952  161.9997 C.ar    1  UNL1        0.0981
      7 C         141.5652  144.5727  161.1399 C.ar    1  UNL1        0.0164
      8 N         142.9414  143.2125  163.0809 N.ar    1  UNL1       -0.2295
      9 C         142.8323  141.8056  163.5895 C.ar    1  UNL1        0.1370
     10 N         141.7412  141.1188  162.8227 N.ar    1  UNL1       -0.3095
     11 C         143.6676  141.1930  164.6744 C.3     1  UNL1        0.1370
     12 N         143.0550  140.8835  166.0082 N.3     1  UNL1       -0.2677
     13 C         142.3877  141.8685  166.9217 C.3     1  UNL1        0.0725
     14 C         141.9225  141.1286  168.1407 C.3     1  UNL1        0.0187
     15 C         142.3024  139.6863  167.9806 C.3     1  UNL1        0.0174
     16 C         143.0024  139.5348  166.6626 C.3     1  UNL1        0.0580
     17 C         143.5529  138.2588  166.0982 C.3     1  UNL1        0.0173
     18 C         141.2939  139.6989  163.0062 C.3     1  UNL1        0.1339
     19 C         140.3000  139.3580  164.0767 C.ar    1  UNL1        0.0005
     20 C         139.6408  140.4515  164.8638 C.ar    1  UNL1       -0.0015
     21 C         138.6470  140.1107  165.9343 C.ar    1  UNL1        0.0111
     22 C         138.3123  138.6762  166.2178 C.ar    1  UNL1        0.0577
     23 CL        137.3184  138.3354  167.2884 Cl      1  UNL1       -0.0822
     24 C         138.9715  137.5827  165.4307 C.ar    1  UNL1        0.0111
     25 C         139.9654  137.9235  164.3601 C.ar    1  UNL1       -0.0015
@<TRIPOS>BOND
     1     1     2    1
     2     2     3   ar
     3     3     4   ar
     4     4     5   ar
     5     5     6   ar
     6     6     7   ar
     7     6     8   ar
     8     8     9   ar
     9     9    11    1
    10    11    12    1
    11    12    13    1
    12    13    14    1
    13    14    15    1
    14    15    16    1
    15    16    17    1
    16     9    10   ar
    17    10    18    1
    18    18    19    1
    19    19    20   ar
    20    20    21   ar
    21    21    22   ar
    22    22    23    1
    23    22    24   ar
    24    24    25   ar
    25     7     2   ar
    26    16    12    1
    27    25    19   ar
    28    10     5   ar
