@<TRIPOS>MOLECULE
*****
 31 35 0 0 0
SMALL
GASTEIGER

@<TRIPOS>ATOM
      1 C         140.6131  138.9742  160.8151 C.3     1  UNL1        0.0747
      2 C         139.5407  138.6755  159.8098 C.3     1  UNL1        0.0369
      3 C         139.9127  138.2630  158.4164 C.3     1  UNL1        0.0741
      4 N         141.3572  138.1491  158.0284 N.3     1  UNL1       -0.2688
      5 C         142.4296  138.4478  159.0337 C.3     1  UNL1        0.0741
      6 C         142.0576  138.8603  160.4271 C.3     1  UNL1        0.0369
      7 O         140.7262  136.9775  163.0512 O.2     1  UNL1       -0.2668
      8 C         140.2977  138.3883  163.3265 C.2     1  UNL1        0.2806
      9 N         140.2412  139.3867  162.2084 N.am    1  UNL1       -0.2999
     10 H         139.9599  140.3127  162.3891 H       1  UNL1        0.1498
     11 C         139.9257  138.8009  164.7199 C.ar    1  UNL1        0.2014
     12 C         138.6904  138.2433  165.3626 C.ar    1  UNL1        0.0843
     13 C         138.3183  138.6558  166.7559 C.ar    1  UNL1        0.2018
     14 O         137.0830  138.0981  167.3986 O.2     1  UNL1       -0.2864
     15 C         139.1816  139.6260  167.5066 C.ar    1  UNL1        0.0735
     16 C         138.8096  140.0385  168.8999 C.ar    1  UNL1        0.0062
     17 C         139.6729  141.0087  169.6505 C.ar    1  UNL1        0.0003
     18 C         140.9082  141.5664  169.0078 C.ar    1  UNL1        0.0031
     19 C         141.2802  141.1539  167.6145 C.ar    1  UNL1        0.0376
     20 C         140.4169  140.1837  166.8639 C.ar    1  UNL1        0.1485
     21 O         140.7889  139.7711  165.4705 O.2     1  UNL1       -0.4487
     22 C         141.7292  137.7366  156.6350 C.3     1  UNL1        0.0992
     23 C         141.9865  136.2919  156.3240 C.ar    1  UNL1       -0.0029
     24 C         141.1196  135.5719  155.3341 C.ar    1  UNL1        0.0004
     25 C         141.3769  134.1273  155.0231 C.ar    1  UNL1        0.0399
     26 C         142.5011  133.4026  155.7020 C.ar    1  UNL1        0.1764
     27 C         143.3680  134.1226  156.6919 C.ar    1  UNL1        0.1762
     28 C         143.1107  135.5673  157.0030 C.ar    1  UNL1        0.0373
     29 O         144.3945  133.1540  157.2000 O.3     1  UNL1       -0.4346
     30 C         144.1620  131.8353  156.5239 C.3     1  UNL1        0.4294
     31 O         142.9918  131.9890  155.5981 O.3     1  UNL1       -0.4346
@<TRIPOS>BOND
     1     7     8    2
     2     8     9   am
     3     9     1    1
     4     1     2    1
     5     2     3    1
     6     3     4    1
     7     4    22    1
     8    22    23    1
     9    23    24   ar
    10    24    25   ar
    11    25    26   ar
    12    26    27   ar
    13    27    28   ar
    14    27    29    1
    15    29    30    1
    16    30    31    1
    17     4     5    1
    18     5     6    1
    19     8    11    1
    20    11    12   ar
    21    12    13   ar
    22    13    14    2
    23    13    15   ar
    24    15    16   ar
    25    16    17   ar
    26    17    18   ar
    27    18    19   ar
    28    19    20   ar
    29    20    21   ar
    30     6     1    1
    31    21    11   ar
    32    28    23   ar
    33    20    15   ar
    34    31    26    1
    35     9    10    1
@<TRIPOS>MOLECULE
*****
 31 35 0 0 0
SMALL
GASTEIGER

@<TRIPOS>ATOM
      1 C         141.2134  138.5538  161.7400 C.3     1  UNL1        0.0747
      2 C         142.5124  137.8337  161.5304 C.3     1  UNL1        0.0369
      3 C         143.0130  137.5792  160.1395 C.3     1  UNL1        0.0741
      4 N         142.2145  138.0448  158.9581 N.3     1  UNL1       -0.2688
      5 C         140.9155  138.7650  159.1677 C.3     1  UNL1        0.0741
      6 C         140.4149  139.0195  160.5587 C.3     1  UNL1        0.0369
      7 O         142.4412  140.7292  163.4014 O.2     1  UNL1       -0.2668
      8 C         141.3267  139.8960  163.9616 C.2     1  UNL1        0.2806
      9 N         140.7128  138.8083  163.1309 N.am    1  UNL1       -0.2999
     10 H         139.9814  138.2615  163.4986 H       1  UNL1        0.1498
     11 C         140.8261  140.1505  165.3526 C.ar    1  UNL1        0.2014
     12 C         139.6785  139.3511  165.8946 C.ar    1  UNL1        0.0843
     13 C         139.1779  139.6055  167.2855 C.ar    1  UNL1        0.2018
     14 O         138.0302  138.8061  167.8275 O.2     1  UNL1       -0.2864
     15 C         139.8249  140.6595  168.1344 C.ar    1  UNL1        0.0735
     16 C         139.3243  140.9139  169.5253 C.ar    1  UNL1        0.0062
     17 C         139.9713  141.9678  170.3742 C.ar    1  UNL1        0.0003
     18 C         141.1190  142.7672  169.8322 C.ar    1  UNL1        0.0031
     19 C         141.6196  142.5128  168.4413 C.ar    1  UNL1        0.0376
     20 C         140.9726  141.4589  167.5924 C.ar    1  UNL1        0.1485
     21 O         141.4732  141.2044  166.2014 O.2     1  UNL1       -0.4487
     22 C         142.7150  137.7903  157.5672 C.3     1  UNL1        0.0992
     23 C         142.3777  136.5045  156.8723 C.ar    1  UNL1       -0.0029
     24 C         141.3385  136.4867  155.7908 C.ar    1  UNL1        0.0004
     25 C         141.0012  135.2009  155.0959 C.ar    1  UNL1        0.0399
     26 C         141.7031  133.9329  155.4824 C.ar    1  UNL1        0.1764
     27 C         142.7423  133.9507  156.5639 C.ar    1  UNL1        0.1762
     28 C         143.0796  135.2365  157.2588 C.ar    1  UNL1        0.0373
     29 O         143.2638  132.5539  156.7288 O.3     1  UNL1       -0.4346
     30 C         142.5467  131.6728  155.7492 C.3     1  UNL1        0.4294
     31 O         141.5822  132.5251  154.9789 O.3     1  UNL1       -0.4346
@<TRIPOS>BOND
     1     7     8    2
     2     8     9   am
     3     9     1    1
     4     1     2    1
     5     2     3    1
     6     3     4    1
     7     4    22    1
     8    22    23    1
     9    23    24   ar
    10    24    25   ar
    11    25    26   ar
    12    26    27   ar
    13    27    28   ar
    14    27    29    1
    15    29    30    1
    16    30    31    1
    17     4     5    1
    18     5     6    1
    19     8    11    1
    20    11    12   ar
    21    12    13   ar
    22    13    14    2
    23    13    15   ar
    24    15    16   ar
    25    16    17   ar
    26    17    18   ar
    27    18    19   ar
    28    19    20   ar
    29    20    21   ar
    30     6     1    1
    31    21    11   ar
    32    28    23   ar
    33    20    15   ar
    34    31    26    1
    35     9    10    1
@<TRIPOS>MOLECULE
*****
 31 35 0 0 0
SMALL
GASTEIGER

@<TRIPOS>ATOM
      1 C         137.8205  139.4479  161.5282 C.3     1  UNL1        0.0747
      2 C         138.4090  138.1107  161.8680 C.3     1  UNL1        0.0369
      3 C         138.8662  137.8263  163.2680 C.3     1  UNL1        0.0741
      4 N         138.7349  138.8793  164.3283 N.3     1  UNL1       -0.2688
      5 C         138.1464  140.2165  163.9885 C.3     1  UNL1        0.0741
      6 C         137.6892  140.5008  162.5884 C.3     1  UNL1        0.0369
      7 O         139.6823  140.7677  159.5810 O.2     1  UNL1       -0.2668
      8 C         138.2942  140.3921  159.1546 C.2     1  UNL1        0.2806
      9 N         137.3632  139.7322  160.1282 N.am    1  UNL1       -0.2999
     10 H         136.4521  139.4857  159.8483 H       1  UNL1        0.1498
     11 C         137.8369  140.6765  157.7545 C.ar    1  UNL1        0.2014
     12 C         138.8371  141.0449  156.6991 C.ar    1  UNL1        0.0843
     13 C         138.3798  141.3292  155.2991 C.ar    1  UNL1        0.2018
     14 O         139.3800  141.6976  154.2437 O.2     1  UNL1       -0.2864
     15 C         136.9223  141.2451  154.9544 C.ar    1  UNL1        0.0735
     16 C         136.4651  141.5294  153.5544 C.ar    1  UNL1        0.0062
     17 C         135.0077  141.4453  153.2098 C.ar    1  UNL1        0.0003
     18 C         134.0075  141.0770  154.2652 C.ar    1  UNL1        0.0031
     19 C         134.4647  140.7926  155.6653 C.ar    1  UNL1        0.0376
     20 C         135.9221  140.8767  156.0098 C.ar    1  UNL1        0.1485
     21 O         136.3794  140.5924  157.4099 O.2     1  UNL1       -0.4487
     22 C         139.1921  138.5949  165.7283 C.3     1  UNL1        0.0992
     23 C         139.6698  139.7156  166.6034 C.ar    1  UNL1       -0.0029
     24 C         140.6602  140.7103  166.0746 C.ar    1  UNL1        0.0004
     25 C         141.1379  141.8309  166.9498 C.ar    1  UNL1        0.0399
     26 C         140.6252  141.9570  168.3538 C.ar    1  UNL1        0.1764
     27 C         139.6348  140.9623  168.8826 C.ar    1  UNL1        0.1762
     28 C         139.1571  139.8416  168.0074 C.ar    1  UNL1        0.0373
     29 O         139.3094  141.3395  170.2975 O.3     1  UNL1       -0.4346
     30 C         140.0988  142.5672  170.6431 C.3     1  UNL1        0.4294
     31 O         140.9120  142.9488  169.4418 O.3     1  UNL1       -0.4346
@<TRIPOS>BOND
     1     7     8    2
     2     8     9   am
     3     9     1    1
     4     1     2    1
     5     2     3    1
     6     3     4    1
     7     4    22    1
     8    22    23    1
     9    23    24   ar
    10    24    25   ar
    11    25    26   ar
    12    26    27   ar
    13    27    28   ar
    14    27    29    1
    15    29    30    1
    16    30    31    1
    17     4     5    1
    18     5     6    1
    19     8    11    1
    20    11    12   ar
    21    12    13   ar
    22    13    14    2
    23    13    15   ar
    24    15    16   ar
    25    16    17   ar
    26    17    18   ar
    27    18    19   ar
    28    19    20   ar
    29    20    21   ar
    30     6     1    1
    31    21    11   ar
    32    28    23   ar
    33    20    15   ar
    34    31    26    1
    35     9    10    1
@<TRIPOS>MOLECULE
*****
 31 35 0 0 0
SMALL
GASTEIGER

@<TRIPOS>ATOM
      1 C         141.8697  139.0513  161.9576 C.3     1  UNL1        0.0747
      2 C         142.7112  138.2329  162.8914 C.3     1  UNL1        0.0369
      3 C         143.1962  138.8275  164.1803 C.3     1  UNL1        0.0741
      4 N         142.8396  140.2407  164.5353 N.3     1  UNL1       -0.2688
      5 C         141.9981  141.0591  163.6015 C.3     1  UNL1        0.0741
      6 C         141.5132  140.4644  162.3126 C.3     1  UNL1        0.0369
      7 O         143.7215  138.8555  159.6054 O.2     1  UNL1       -0.2668
      8 C         142.3107  138.3588  159.4927 C.2     1  UNL1        0.2806
      9 N         141.3848  138.4567  160.6687 N.am    1  UNL1       -0.2999
     10 H         140.4588  138.1306  160.5947 H       1  UNL1        0.1498
     11 C         141.8257  137.7641  158.2038 C.ar    1  UNL1        0.2014
     12 C         140.4447  138.0745  157.7073 C.ar    1  UNL1        0.0843
     13 C         139.9596  137.4799  156.4185 C.ar    1  UNL1        0.2018
     14 O         138.5786  137.7904  155.9221 O.2     1  UNL1       -0.2864
     15 C         140.8556  136.5747  155.6260 C.ar    1  UNL1        0.0735
     16 C         140.3706  135.9801  154.3372 C.ar    1  UNL1        0.0062
     17 C         141.2666  135.0750  153.5448 C.ar    1  UNL1        0.0003
     18 C         142.6476  134.7646  154.0412 C.ar    1  UNL1        0.0031
     19 C         143.1326  135.3592  155.3300 C.ar    1  UNL1        0.0376
     20 C         142.2366  136.2643  156.1224 C.ar    1  UNL1        0.1485
     21 O         142.7217  136.8590  157.4113 O.2     1  UNL1       -0.4487
     22 C         143.3246  140.8353  165.8242 C.3     1  UNL1        0.0992
     23 C         142.3625  141.0697  166.9509 C.ar    1  UNL1       -0.0029
     24 C         142.5146  142.2768  167.8282 C.ar    1  UNL1        0.0004
     25 C         141.5526  142.5111  168.9550 C.ar    1  UNL1        0.0399
     26 C         140.4384  141.5384  169.2044 C.ar    1  UNL1        0.1764
     27 C         140.2862  140.3313  168.3271 C.ar    1  UNL1        0.1762
     28 C         141.2483  140.0969  167.2003 C.ar    1  UNL1        0.0373
     29 O         139.0991  139.5527  168.8116 O.3     1  UNL1       -0.4346
     30 C         138.5176  140.2787  169.9883 C.3     1  UNL1        0.4294
     31 O         139.3453  141.5059  170.2311 O.3     1  UNL1       -0.4346
@<TRIPOS>BOND
     1     7     8    2
     2     8     9   am
     3     9     1    1
     4     1     2    1
     5     2     3    1
     6     3     4    1
     7     4    22    1
     8    22    23    1
     9    23    24   ar
    10    24    25   ar
    11    25    26   ar
    12    26    27   ar
    13    27    28   ar
    14    27    29    1
    15    29    30    1
    16    30    31    1
    17     4     5    1
    18     5     6    1
    19     8    11    1
    20    11    12   ar
    21    12    13   ar
    22    13    14    2
    23    13    15   ar
    24    15    16   ar
    25    16    17   ar
    26    17    18   ar
    27    18    19   ar
    28    19    20   ar
    29    20    21   ar
    30     6     1    1
    31    21    11   ar
    32    28    23   ar
    33    20    15   ar
    34    31    26    1
    35     9    10    1
@<TRIPOS>MOLECULE
*****
 31 35 0 0 0
SMALL
GASTEIGER

@<TRIPOS>ATOM
      1 C         141.1948  138.9112  158.6541 C.3     1  UNL1        0.0747
      2 C         142.5814  138.4549  158.3091 C.3     1  UNL1        0.0369
      3 C         142.7871  137.4224  157.2407 C.3     1  UNL1        0.0741
      4 N         141.6062  136.8460  156.5173 N.3     1  UNL1       -0.2688
      5 C         140.2195  137.3023  156.8624 C.3     1  UNL1        0.0741
      6 C         140.0139  138.3349  157.9308 C.3     1  UNL1        0.0369
      7 O         140.8954  138.0679  161.5175 O.2     1  UNL1       -0.2668
      8 C         140.8394  139.5221  161.1542 C.2     1  UNL1        0.2806
      9 N         140.9891  139.9438  159.7225 N.am    1  UNL1       -0.2999
     10 H         140.9524  140.8982  159.4841 H       1  UNL1        0.1498
     11 C         140.6337  140.5547  162.2226 C.ar    1  UNL1        0.2014
     12 C         141.6681  140.7435  163.2924 C.ar    1  UNL1        0.0843
     13 C         141.4625  141.7760  164.3607 C.ar    1  UNL1        0.2018
     14 O         142.4969  141.9648  165.4304 O.2     1  UNL1       -0.2864
     15 C         140.2223  142.6200  164.3594 C.ar    1  UNL1        0.0735
     16 C         140.0167  143.6526  165.4277 C.ar    1  UNL1        0.0062
     17 C         138.7766  144.4964  165.4264 C.ar    1  UNL1        0.0003
     18 C         137.7422  144.3077  164.3566 C.ar    1  UNL1        0.0031
     19 C         137.9478  143.2751  163.2883 C.ar    1  UNL1        0.0376
     20 C         139.1879  142.4313  163.2896 C.ar    1  UNL1        0.1485
     21 O         139.3936  141.3986  162.2212 O.2     1  UNL1       -0.4487
     22 C         141.8118  135.8135  155.4490 C.3     1  UNL1        0.0992
     23 C         142.1894  134.4111  155.8240 C.ar    1  UNL1       -0.0029
     24 C         141.4046  133.2529  155.2831 C.ar    1  UNL1        0.0004
     25 C         141.7822  131.8505  155.6582 C.ar    1  UNL1        0.0399
     26 C         142.9446  131.6063  156.5742 C.ar    1  UNL1        0.1764
     27 C         143.7294  132.7644  157.1152 C.ar    1  UNL1        0.1762
     28 C         143.3518  134.1668  156.7401 C.ar    1  UNL1        0.0373
     29 O         144.8176  132.2182  157.9913 O.3     1  UNL1       -0.4346
     30 C         144.7053  130.7225  157.9918 C.3     1  UNL1        0.4294
     31 O         143.5477  130.3442  157.1160 O.3     1  UNL1       -0.4346
@<TRIPOS>BOND
     1     7     8    2
     2     8     9   am
     3     9     1    1
     4     1     2    1
     5     2     3    1
     6     3     4    1
     7     4    22    1
     8    22    23    1
     9    23    24   ar
    10    24    25   ar
    11    25    26   ar
    12    26    27   ar
    13    27    28   ar
    14    27    29    1
    15    29    30    1
    16    30    31    1
    17     4     5    1
    18     5     6    1
    19     8    11    1
    20    11    12   ar
    21    12    13   ar
    22    13    14    2
    23    13    15   ar
    24    15    16   ar
    25    16    17   ar
    26    17    18   ar
    27    18    19   ar
    28    19    20   ar
    29    20    21   ar
    30     6     1    1
    31    21    11   ar
    32    28    23   ar
    33    20    15   ar
    34    31    26    1
    35     9    10    1
@<TRIPOS>MOLECULE
*****
 31 35 0 0 0
SMALL
GASTEIGER

@<TRIPOS>ATOM
      1 C         139.2823  138.3150  162.1905 C.3     1  UNL1        0.0747
      2 C         139.9117  137.5047  163.2846 C.3     1  UNL1        0.0369
      3 C         139.6420  137.8453  164.7203 C.3     1  UNL1        0.0741
      4 N         138.7427  138.9963  165.0619 N.3     1  UNL1       -0.2688
      5 C         138.1132  139.8066  163.9677 C.3     1  UNL1        0.0741
      6 C         138.3830  139.4659  162.5320 C.3     1  UNL1        0.0369
      7 O         141.5914  139.5839  160.7560 O.2     1  UNL1       -0.2668
      8 C         140.7066  138.6088  160.0376 C.2     1  UNL1        0.2806
      9 N         139.5520  137.9744  160.7548 N.am    1  UNL1       -0.2999
     10 H         138.9713  137.3344  160.2833 H       1  UNL1        0.1498
     11 C         140.9763  138.2681  158.6019 C.ar    1  UNL1        0.2014
     12 C         142.3867  138.2278  158.0928 C.ar    1  UNL1        0.0843
     13 C         142.6565  137.8871  156.6572 C.ar    1  UNL1        0.2018
     14 O         144.0669  137.8467  156.1482 O.2     1  UNL1       -0.2864
     15 C         141.5158  137.5868  155.7305 C.ar    1  UNL1        0.0735
     16 C         141.7855  137.2461  154.2948 C.ar    1  UNL1        0.0062
     17 C         140.6449  136.9458  153.3682 C.ar    1  UNL1        0.0003
     18 C         139.2345  136.9862  153.8772 C.ar    1  UNL1        0.0031
     19 C         138.9647  137.3269  155.3129 C.ar    1  UNL1        0.0376
     20 C         140.1054  137.6272  156.2395 C.ar    1  UNL1        0.1485
     21 O         139.8356  137.9679  157.6752 O.2     1  UNL1       -0.4487
     22 C         138.4730  139.3370  166.4975 C.3     1  UNL1        0.0992
     23 C         139.3956  140.2614  167.2351 C.ar    1  UNL1       -0.0029
     24 C         140.0625  141.3920  166.5092 C.ar    1  UNL1        0.0004
     25 C         140.9851  142.3165  167.2468 C.ar    1  UNL1        0.0399
     26 C         141.2409  142.1104  168.7104 C.ar    1  UNL1        0.1764
     27 C         140.5740  140.9798  169.4363 C.ar    1  UNL1        0.1762
     28 C         139.6514  140.0553  168.6987 C.ar    1  UNL1        0.0373
     29 O         141.0150  141.0248  170.8694 O.3     1  UNL1       -0.4346
     30 C         141.9544  142.1833  171.0291 C.3     1  UNL1        0.4294
     31 O         142.0940  142.8542  169.6947 O.3     1  UNL1       -0.4346
@<TRIPOS>BOND
     1     7     8    2
     2     8     9   am
     3     9     1    1
     4     1     2    1
     5     2     3    1
     6     3     4    1
     7     4    22    1
     8    22    23    1
     9    23    24   ar
    10    24    25   ar
    11    25    26   ar
    12    26    27   ar
    13    27    28   ar
    14    27    29    1
    15    29    30    1
    16    30    31    1
    17     4     5    1
    18     5     6    1
    19     8    11    1
    20    11    12   ar
    21    12    13   ar
    22    13    14    2
    23    13    15   ar
    24    15    16   ar
    25    16    17   ar
    26    17    18   ar
    27    18    19   ar
    28    19    20   ar
    29    20    21   ar
    30     6     1    1
    31    21    11   ar
    32    28    23   ar
    33    20    15   ar
    34    31    26    1
    35     9    10    1
@<TRIPOS>MOLECULE
*****
 31 35 0 0 0
SMALL
GASTEIGER

@<TRIPOS>ATOM
      1 C         140.8070  138.3632  161.5257 C.3     1  UNL1        0.0747
      2 C         142.2107  138.0161  161.1268 C.3     1  UNL1        0.0369
      3 C         142.5741  137.9130  159.6751 C.3     1  UNL1        0.0741
      4 N         141.5337  138.1569  158.6224 N.3     1  UNL1       -0.2688
      5 C         140.1300  138.5040  159.0213 C.3     1  UNL1        0.0741
      6 C         139.7666  138.6071  160.4730 C.3     1  UNL1        0.0369
      7 O         140.7067  141.0483  162.8599 O.2     1  UNL1       -0.2668
      8 C         140.3935  139.8088  163.6444 C.2     1  UNL1        0.2806
      9 N         140.4436  138.4663  162.9773 N.am    1  UNL1       -0.2999
     10 H         140.2380  137.6528  163.4923 H       1  UNL1        0.1498
     11 C         140.0301  139.9119  165.0961 C.ar    1  UNL1        0.2014
     12 C         138.9252  139.0649  165.6546 C.ar    1  UNL1        0.0843
     13 C         138.5618  139.1679  167.1063 C.ar    1  UNL1        0.2018
     14 O         137.4570  138.3209  167.6648 O.2     1  UNL1       -0.2864
     15 C         139.3032  140.1180  167.9995 C.ar    1  UNL1        0.0735
     16 C         138.9398  140.2210  169.4511 C.ar    1  UNL1        0.0062
     17 C         139.6812  141.1710  170.3442 C.ar    1  UNL1        0.0003
     18 C         140.7860  142.0181  169.7857 C.ar    1  UNL1        0.0031
     19 C         141.1494  141.9150  168.3341 C.ar    1  UNL1        0.0376
     20 C         140.4080  140.9650  167.4410 C.ar    1  UNL1        0.1485
     21 O         140.7715  140.8619  165.9892 O.2     1  UNL1       -0.4487
     22 C         141.8971  138.0538  157.1707 C.3     1  UNL1        0.0992
     23 C         143.1291  138.7371  156.6556 C.ar    1  UNL1       -0.0029
     24 C         143.8723  138.1621  155.4865 C.ar    1  UNL1        0.0004
     25 C         145.1043  138.8453  154.9714 C.ar    1  UNL1        0.0399
     26 C         145.5931  140.1036  155.6254 C.ar    1  UNL1        0.1764
     27 C         144.8499  140.6786  156.7945 C.ar    1  UNL1        0.1762
     28 C         143.6179  139.9954  157.3096 C.ar    1  UNL1        0.0373
     29 O         145.5651  141.9225  157.2321 O.3     1  UNL1       -0.4346
     30 C         146.7503  142.1161  156.3334 C.3     1  UNL1        0.4294
     31 O         146.7676  140.9920  155.3404 O.3     1  UNL1       -0.4346
@<TRIPOS>BOND
     1     7     8    2
     2     8     9   am
     3     9     1    1
     4     1     2    1
     5     2     3    1
     6     3     4    1
     7     4    22    1
     8    22    23    1
     9    23    24   ar
    10    24    25   ar
    11    25    26   ar
    12    26    27   ar
    13    27    28   ar
    14    27    29    1
    15    29    30    1
    16    30    31    1
    17     4     5    1
    18     5     6    1
    19     8    11    1
    20    11    12   ar
    21    12    13   ar
    22    13    14    2
    23    13    15   ar
    24    15    16   ar
    25    16    17   ar
    26    17    18   ar
    27    18    19   ar
    28    19    20   ar
    29    20    21   ar
    30     6     1    1
    31    21    11   ar
    32    28    23   ar
    33    20    15   ar
    34    31    26    1
    35     9    10    1
@<TRIPOS>MOLECULE
*****
 31 35 0 0 0
SMALL
GASTEIGER

@<TRIPOS>ATOM
      1 C         140.9309  138.5624  158.4642 C.3     1  UNL1        0.0747
      2 C         139.9490  137.9960  157.4818 C.3     1  UNL1        0.0369
      3 C         140.4018  136.9937  156.4619 C.3     1  UNL1        0.0741
      4 N         141.8366  136.5576  156.4243 N.3     1  UNL1       -0.2688
      5 C         142.8185  137.1239  157.4067 C.3     1  UNL1        0.0741
      6 C         142.3656  138.1263  158.4267 C.3     1  UNL1        0.0369
      7 O         140.3982  137.6950  161.2862 O.2     1  UNL1       -0.2668
      8 C         140.2118  139.1310  160.8951 C.2     1  UNL1        0.2806
      9 N         140.4782  139.5647  159.4841 N.am    1  UNL1       -0.2999
     10 H         140.3558  140.5073  159.2274 H       1  UNL1        0.1498
     11 C         139.7590  140.1335  161.9150 C.ar    1  UNL1        0.2014
     12 C         139.1221  139.6695  163.1913 C.ar    1  UNL1        0.0843
     13 C         138.6693  140.6718  164.2112 C.ar    1  UNL1        0.2018
     14 O         138.0324  140.2078  165.4876 O.2     1  UNL1       -0.2864
     15 C         138.8534  142.1383  163.9548 C.ar    1  UNL1        0.0735
     16 C         138.4006  143.1406  164.9747 C.ar    1  UNL1        0.0062
     17 C         138.5848  144.6070  164.7183 C.ar    1  UNL1        0.0003
     18 C         139.2217  145.0710  163.4419 C.ar    1  UNL1        0.0031
     19 C         139.6745  144.0687  162.4221 C.ar    1  UNL1        0.0376
     20 C         139.4903  142.6023  162.6785 C.ar    1  UNL1        0.1485
     21 O         139.9431  141.5998  161.6586 O.2     1  UNL1       -0.4487
     22 C         142.2893  135.5553  155.4044 C.3     1  UNL1        0.0992
     23 C         142.5282  134.1304  155.8078 C.ar    1  UNL1       -0.0029
     24 C         141.6489  133.0410  155.2693 C.ar    1  UNL1        0.0004
     25 C         141.8878  131.6161  155.6727 C.ar    1  UNL1        0.0399
     26 C         143.0059  131.2807  156.6145 C.ar    1  UNL1        0.1764
     27 C         143.8853  132.3700  157.1529 C.ar    1  UNL1        0.1762
     28 C         143.6464  133.7949  156.7496 C.ar    1  UNL1        0.0373
     29 O         144.9022  131.7401  158.0580 O.3     1  UNL1       -0.4346
     30 C         144.6514  130.2614  158.0788 C.3     1  UNL1        0.4294
     31 O         143.4794  129.9775  157.1867 O.3     1  UNL1       -0.4346
@<TRIPOS>BOND
     1     7     8    2
     2     8     9   am
     3     9     1    1
     4     1     2    1
     5     2     3    1
     6     3     4    1
     7     4    22    1
     8    22    23    1
     9    23    24   ar
    10    24    25   ar
    11    25    26   ar
    12    26    27   ar
    13    27    28   ar
    14    27    29    1
    15    29    30    1
    16    30    31    1
    17     4     5    1
    18     5     6    1
    19     8    11    1
    20    11    12   ar
    21    12    13   ar
    22    13    14    2
    23    13    15   ar
    24    15    16   ar
    25    16    17   ar
    26    17    18   ar
    27    18    19   ar
    28    19    20   ar
    29    20    21   ar
    30     6     1    1
    31    21    11   ar
    32    28    23   ar
    33    20    15   ar
    34    31    26    1
    35     9    10    1
@<TRIPOS>MOLECULE
*****
 31 35 0 0 0
SMALL
GASTEIGER

@<TRIPOS>ATOM
      1 C         140.4583  144.1639  159.9258 C.3     1  UNL1        0.0747
      2 C         139.8927  143.1243  159.0042 C.3     1  UNL1        0.0369
      3 C         139.5863  143.4732  157.5780 C.3     1  UNL1        0.0741
      4 N         139.8455  144.8618  157.0732 N.3     1  UNL1       -0.2688
      5 C         140.4110  145.9014  157.9948 C.3     1  UNL1        0.0741
      6 C         140.7175  145.5524  159.4212 C.3     1  UNL1        0.0369
      7 O         143.2989  143.7273  160.7863 O.2     1  UNL1       -0.2668
      8 C         142.1850  143.5966  161.7823 C.2     1  UNL1        0.2806
      9 N         140.7647  143.8149  161.3521 N.am    1  UNL1       -0.2999
     10 H         140.0336  143.7292  162.0059 H       1  UNL1        0.1498
     11 C         142.4914  143.2477  163.2087 C.ar    1  UNL1        0.2014
     12 C         143.6810  143.8558  163.8907 C.ar    1  UNL1        0.0843
     13 C         143.9874  143.5069  165.3169 C.ar    1  UNL1        0.2018
     14 O         145.1770  144.1150  165.9989 O.2     1  UNL1       -0.2864
     15 C         143.1042  142.5499  166.0614 C.ar    1  UNL1        0.0735
     16 C         143.4106  142.2010  167.4876 C.ar    1  UNL1        0.0062
     17 C         142.5274  141.2440  168.2320 C.ar    1  UNL1        0.0003
     18 C         141.3378  140.6359  167.5500 C.ar    1  UNL1        0.0031
     19 C         141.0314  140.9848  166.1237 C.ar    1  UNL1        0.0376
     20 C         141.9146  141.9418  165.3794 C.ar    1  UNL1        0.1485
     21 O         141.6082  142.2907  163.9530 O.2     1  UNL1       -0.4487
     22 C         139.5390  145.2107  155.6469 C.3     1  UNL1        0.0992
     23 C         139.5730  146.6425  155.2012 C.ar    1  UNL1       -0.0029
     24 C         140.4545  147.0516  154.0585 C.ar    1  UNL1        0.0004
     25 C         140.4885  148.4834  153.6127 C.ar    1  UNL1        0.0399
     26 C         139.6410  149.5062  154.3096 C.ar    1  UNL1        0.1764
     27 C         138.7596  149.0972  155.4523 C.ar    1  UNL1        0.1762
     28 C         138.7256  147.6653  155.8980 C.ar    1  UNL1        0.0373
     29 O         138.0405  150.3186  155.9433 O.3     1  UNL1       -0.4346
     30 C         138.4776  151.4825  155.1041 C.3     1  UNL1        0.4294
     31 O         139.4667  150.9804  154.0944 O.3     1  UNL1       -0.4346
@<TRIPOS>BOND
     1     7     8    2
     2     8     9   am
     3     9     1    1
     4     1     2    1
     5     2     3    1
     6     3     4    1
     7     4    22    1
     8    22    23    1
     9    23    24   ar
    10    24    25   ar
    11    25    26   ar
    12    26    27   ar
    13    27    28   ar
    14    27    29    1
    15    29    30    1
    16    30    31    1
    17     4     5    1
    18     5     6    1
    19     8    11    1
    20    11    12   ar
    21    12    13   ar
    22    13    14    2
    23    13    15   ar
    24    15    16   ar
    25    16    17   ar
    26    17    18   ar
    27    18    19   ar
    28    19    20   ar
    29    20    21   ar
    30     6     1    1
    31    21    11   ar
    32    28    23   ar
    33    20    15   ar
    34    31    26    1
    35     9    10    1
