@<TRIPOS>MOLECULE
*****
 36 39 0 0 0
SMALL
GASTEIGER

@<TRIPOS>ATOM
      1 N         142.4637  141.0619  160.3160 N.3     1  UNL1       -0.2684
      2 C         143.1524  142.1080  161.1415 C.3     1  UNL1        0.1035
      3 C         142.3427  143.1073  161.9134 C.3     1  UNL1        0.1470
      4 C         141.5330  144.1066  162.6853 C.3     1  UNL1        0.1035
      5 N         140.0347  144.0598  162.6317 N.3     1  UNL1       -0.2685
      6 C         139.3461  143.0137  161.8062 C.3     1  UNL1        0.1035
      7 C         140.1557  142.0144  161.0343 C.3     1  UNL1        0.1470
      8 C         140.9654  141.0151  160.2625 C.3     1  UNL1        0.1035
      9 O         140.8444  143.0605  161.8598 O.3     1  UNL1       -0.3530
     10 C         143.2734  140.0625  159.5441 C.3     1  UNL1        0.0761
     11 C         143.9876  138.9583  160.2655 C.3     1  UNL1        0.0646
     12 C         143.3328  138.2769  161.4304 C.3     1  UNL1        0.2068
     13 O         141.9414  137.7330  161.2959 O.3     1  UNL1       -0.4754
     14 C         139.1340  137.8406  164.8112 C.ar    1  UNL1        0.0686
     15 C         138.6260  138.1569  163.4357 C.ar    1  UNL1        0.0134
     16 C         139.5618  138.1210  162.2639 C.ar    1  UNL1        0.0376
     17 C         141.0056  137.7689  162.4677 C.ar    1  UNL1        0.1386
     18 C         141.5136  137.4526  163.8432 C.ar    1  UNL1        0.0376
     19 C         140.5777  137.4885  165.0149 C.ar    1  UNL1        0.0134
     20 N         137.2624  137.9124  167.1547 N.1     1  UNL1       -0.1908
     21 C         138.1982  137.8765  165.9829 C.1     1  UNL1        0.1004
     22 C         139.2251  145.0591  163.4036 C.3     1  UNL1        0.0737
     23 C         138.6263  144.6788  164.7253 C.3     1  UNL1        0.0361
     24 C         139.3869  143.7919  165.6659 C.3     1  UNL1        0.0925
     25 N         139.4571  142.3152  165.4126 N.3     1  UNL1       -0.1830
     26 H         139.2947  142.1795  164.4148 H       1  UNL1        0.1484
     27 S         140.7031  141.5537  165.7559 S.O2    1  UNL1        0.0450
     28 O         140.7082  140.9442  164.3854 O.2     1  UNL1       -0.1572
     29 O         140.6980  142.1632  167.1264 O.2     1  UNL1       -0.1572
     30 C         141.9490  140.7923  166.0992 C.3     1  UNL1        0.1952
     31 C         143.2232  141.0647  165.3561 C.ar    1  UNL1        0.0029
     32 C         143.9638  139.9378  164.6990 C.ar    1  UNL1       -0.0025
     33 C         145.2380  140.2102  163.9559 C.ar    1  UNL1       -0.0003
     34 C         145.7716  141.6094  163.8698 C.ar    1  UNL1       -0.0000
     35 C         145.0310  142.7362  164.5269 C.ar    1  UNL1       -0.0003
     36 C         143.7568  142.4639  165.2700 C.ar    1  UNL1       -0.0025
@<TRIPOS>BOND
     1    20    21    3
     2    21    14    1
     3    14    15   ar
     4    15    16   ar
     5    16    17   ar
     6    17    13    1
     7    13    12    1
     8    12    11    1
     9    11    10    1
    10    10     1    1
    11     1     2    1
    12     2     3    1
    13     3     4    1
    14     4     5    1
    15     5    22    1
    16    22    23    1
    17    23    24    1
    18    24    25    1
    19    25    27    1
    20    27    28    2
    21    27    29    2
    22    27    30    1
    23    30    31    1
    24    31    32   ar
    25    32    33   ar
    26    33    34   ar
    27    34    35   ar
    28    35    36   ar
    29     5     6    1
    30     6     7    1
    31     7     8    1
    32     7     9    1
    33    17    18   ar
    34    18    19   ar
    35    19    14   ar
    36     8     1    1
    37     9     3    1
    38    36    31   ar
    39    25    26    1
@<TRIPOS>MOLECULE
*****
 36 39 0 0 0
SMALL
GASTEIGER

@<TRIPOS>ATOM
      1 N         142.7528  140.4529  168.3750 N.3     1  UNL1       -0.2684
      2 C         142.8581  139.2192  167.5284 C.3     1  UNL1        0.1035
      3 C         143.2268  139.3336  166.0789 C.3     1  UNL1        0.1470
      4 C         143.5955  139.4480  164.6294 C.3     1  UNL1        0.1035
      5 N         143.8589  140.7960  164.0266 N.3     1  UNL1       -0.2685
      6 C         143.7535  142.0298  164.8734 C.3     1  UNL1        0.1035
      7 C         143.3848  141.9154  166.3228 C.3     1  UNL1        0.1470
      8 C         143.0161  141.8010  167.7723 C.3     1  UNL1        0.1035
      9 O         143.4901  140.6817  165.4762 O.3     1  UNL1       -0.3530
     10 C         142.3840  140.3386  169.8246 C.3     1  UNL1        0.0761
     11 C         141.1175  139.6409  170.2235 C.3     1  UNL1        0.0646
     12 C         139.7883  140.2544  169.8966 C.3     1  UNL1        0.2068
     13 O         139.6352  141.1021  168.6686 O.3     1  UNL1       -0.4754
     14 C         138.8749  139.1654  164.6785 C.ar    1  UNL1        0.0686
     15 C         138.3142  138.5537  165.9280 C.ar    1  UNL1        0.0134
     16 C         138.5676  139.1992  167.2581 C.ar    1  UNL1        0.0376
     17 C         139.3818  140.4565  167.3386 C.ar    1  UNL1        0.1386
     18 C         139.9424  141.0683  166.0890 C.ar    1  UNL1        0.0376
     19 C         139.6889  140.4227  164.7589 C.ar    1  UNL1        0.0134
     20 N         138.3680  137.8743  162.0183 N.1     1  UNL1       -0.1908
     21 C         138.6214  138.5199  163.3484 C.1     1  UNL1        0.1004
     22 C         144.2276  140.9104  162.5772 C.3     1  UNL1        0.0737
     23 C         144.7972  142.1929  162.0471 C.3     1  UNL1        0.0361
     24 C         143.8849  143.2450  161.4898 C.3     1  UNL1        0.0925
     25 N         143.5656  144.4664  162.2998 N.3     1  UNL1       -0.1830
     26 H         144.1382  145.2243  161.9281 H       1  UNL1        0.1484
     27 S         142.1569  144.9782  162.3617 S.O2    1  UNL1        0.0450
     28 O         142.2879  145.1595  163.8449 O.2     1  UNL1       -0.1572
     29 O         142.0259  144.7969  160.8785 O.2     1  UNL1       -0.1572
     30 C         140.7483  145.4900  162.4236 C.3     1  UNL1        0.1952
     31 C         139.6336  144.5713  162.8279 C.ar    1  UNL1        0.0029
     32 C         138.9967  144.7138  164.1784 C.ar    1  UNL1       -0.0025
     33 C         137.8820  143.7951  164.5827 C.ar    1  UNL1       -0.0003
     34 C         137.4043  142.7339  163.6365 C.ar    1  UNL1       -0.0000
     35 C         138.0412  142.5913  162.2860 C.ar    1  UNL1       -0.0003
     36 C         139.1559  143.5100  161.8817 C.ar    1  UNL1       -0.0025
@<TRIPOS>BOND
     1    20    21    3
     2    21    14    1
     3    14    15   ar
     4    15    16   ar
     5    16    17   ar
     6    17    13    1
     7    13    12    1
     8    12    11    1
     9    11    10    1
    10    10     1    1
    11     1     2    1
    12     2     3    1
    13     3     4    1
    14     4     5    1
    15     5    22    1
    16    22    23    1
    17    23    24    1
    18    24    25    1
    19    25    27    1
    20    27    28    2
    21    27    29    2
    22    27    30    1
    23    30    31    1
    24    31    32   ar
    25    32    33   ar
    26    33    34   ar
    27    34    35   ar
    28    35    36   ar
    29     5     6    1
    30     6     7    1
    31     7     8    1
    32     7     9    1
    33    17    18   ar
    34    18    19   ar
    35    19    14   ar
    36     8     1    1
    37     9     3    1
    38    36    31   ar
    39    25    26    1
@<TRIPOS>MOLECULE
*****
 36 39 0 0 0
SMALL
GASTEIGER

@<TRIPOS>ATOM
      1 N         142.6867  138.4718  161.1694 N.3     1  UNL1       -0.2684
      2 C         141.2373  138.3695  160.7969 C.3     1  UNL1        0.1035
      3 C         140.2089  138.0949  161.8538 C.3     1  UNL1        0.1470
      4 C         139.1805  137.8203  162.9107 C.3     1  UNL1        0.1035
      5 N         139.6015  137.6480  164.3400 N.3     1  UNL1       -0.2685
      6 C         141.0510  137.7503  164.7125 C.3     1  UNL1        0.1035
      7 C         142.0793  138.0248  163.6556 C.3     1  UNL1        0.1470
      8 C         143.1077  138.2994  162.5987 C.3     1  UNL1        0.1035
      9 O         140.6300  137.9226  163.2831 O.3     1  UNL1       -0.3530
     10 C         143.7151  138.7464  160.1125 C.3     1  UNL1        0.0761
     11 C         143.7232  140.0656  159.3986 C.3     1  UNL1        0.0646
     12 C         144.0712  141.3198  160.1444 C.3     1  UNL1        0.2068
     13 O         143.0110  142.0575  160.9070 O.3     1  UNL1       -0.4754
     14 C         143.2590  142.3535  165.3904 C.ar    1  UNL1        0.0686
     15 C         142.0686  141.7070  164.7461 C.ar    1  UNL1        0.0134
     16 C         141.9859  141.6083  163.2517 C.ar    1  UNL1        0.0376
     17 C         143.0937  142.1562  162.4015 C.ar    1  UNL1        0.1386
     18 C         144.2840  142.8027  163.0457 C.ar    1  UNL1        0.0376
     19 C         144.3667  142.9013  164.5402 C.ar    1  UNL1        0.0134
     20 N         143.4243  142.5509  168.3794 N.1     1  UNL1       -0.1908
     21 C         143.3416  142.4522  166.8848 C.1     1  UNL1        0.1004
     22 C         138.5731  137.3734  165.3969 C.3     1  UNL1        0.0737
     23 C         138.1007  138.4823  166.2898 C.3     1  UNL1        0.0361
     24 C         138.3372  139.9113  165.9002 C.3     1  UNL1        0.0925
     25 N         137.8403  140.4208  164.5798 N.3     1  UNL1       -0.1830
     26 H         136.8678  140.1244  164.4970 H       1  UNL1        0.1484
     27 S         137.8717  141.8909  164.2832 S.O2    1  UNL1        0.0450
     28 O         136.9369  141.6780  163.1296 O.2     1  UNL1       -0.1572
     29 O         138.8064  142.1037  165.4367 O.2     1  UNL1       -0.1572
     30 C         137.9030  143.3609  163.9865 C.3     1  UNL1        0.1952
     31 C         139.0514  143.9469  163.2199 C.ar    1  UNL1        0.0029
     32 C         140.0903  144.7617  163.9316 C.ar    1  UNL1       -0.0025
     33 C         141.2387  145.3478  163.1650 C.ar    1  UNL1       -0.0003
     34 C         141.3482  145.1191  161.6866 C.ar    1  UNL1       -0.0000
     35 C         140.3092  144.3043  160.9749 C.ar    1  UNL1       -0.0003
     36 C         139.1608  143.7183  161.7415 C.ar    1  UNL1       -0.0025
@<TRIPOS>BOND
     1    20    21    3
     2    21    14    1
     3    14    15   ar
     4    15    16   ar
     5    16    17   ar
     6    17    13    1
     7    13    12    1
     8    12    11    1
     9    11    10    1
    10    10     1    1
    11     1     2    1
    12     2     3    1
    13     3     4    1
    14     4     5    1
    15     5    22    1
    16    22    23    1
    17    23    24    1
    18    24    25    1
    19    25    27    1
    20    27    28    2
    21    27    29    2
    22    27    30    1
    23    30    31    1
    24    31    32   ar
    25    32    33   ar
    26    33    34   ar
    27    34    35   ar
    28    35    36   ar
    29     5     6    1
    30     6     7    1
    31     7     8    1
    32     7     9    1
    33    17    18   ar
    34    18    19   ar
    35    19    14   ar
    36     8     1    1
    37     9     3    1
    38    36    31   ar
    39    25    26    1
@<TRIPOS>MOLECULE
*****
 36 39 0 0 0
SMALL
GASTEIGER

@<TRIPOS>ATOM
      1 N         141.7053  138.0926  163.4370 N.3     1  UNL1       -0.2684
      2 C         140.9814  138.0267  162.1250 C.3     1  UNL1        0.1035
      3 C         141.5524  138.7107  160.9183 C.3     1  UNL1        0.1470
      4 C         142.1233  139.3947  159.7115 C.3     1  UNL1        0.1035
      5 N         143.4181  140.1446  159.8169 N.3     1  UNL1       -0.2685
      6 C         144.1420  140.2104  161.1291 C.3     1  UNL1        0.1035
      7 C         143.5711  139.5264  162.3358 C.3     1  UNL1        0.1470
      8 C         143.0001  138.8424  163.5424 C.3     1  UNL1        0.1035
      9 O         142.8472  139.4605  161.0237 O.3     1  UNL1       -0.3530
     10 C         141.1343  137.4086  164.6438 C.3     1  UNL1        0.0761
     11 C         139.6479  137.3326  164.8298 C.3     1  UNL1        0.0646
     12 C         138.8154  138.5767  164.7331 C.3     1  UNL1        0.2068
     13 O         139.4368  139.9170  164.9926 O.3     1  UNL1       -0.4754
     14 C         140.1726  141.2754  169.2191 C.ar    1  UNL1        0.0686
     15 C         139.2561  140.1185  168.9520 C.ar    1  UNL1        0.0134
     16 C         139.0108  139.6656  167.5432 C.ar    1  UNL1        0.0376
     17 C         139.6821  140.3698  166.4014 C.ar    1  UNL1        0.1386
     18 C         140.5986  141.5268  166.6685 C.ar    1  UNL1        0.0376
     19 C         140.8439  141.9796  168.0774 C.ar    1  UNL1        0.0134
     20 N         140.6632  142.1811  172.0368 N.1     1  UNL1       -0.1908
     21 C         140.4179  141.7282  170.6279 C.1     1  UNL1        0.1004
     22 C         143.9891  140.8285  158.6102 C.3     1  UNL1        0.0737
     23 C         144.3183  142.2911  158.6627 C.3     1  UNL1        0.0361
     24 C         143.2292  143.2974  158.8887 C.3     1  UNL1        0.0925
     25 N         142.0967  142.9804  159.8197 N.3     1  UNL1       -0.1830
     26 H         142.2693  142.0439  160.1853 H       1  UNL1        0.1484
     27 S         141.8278  143.8639  161.0018 S.O2    1  UNL1        0.0450
     28 O         141.9520  142.6802  161.9147 O.2     1  UNL1       -0.1572
     29 O         141.7035  145.0475  160.0889 O.2     1  UNL1       -0.1572
     30 C         141.5588  144.7473  162.1838 C.3     1  UNL1        0.1952
     31 C         140.3036  144.5667  162.9850 C.ar    1  UNL1        0.0029
     32 C         140.3542  144.6298  164.4828 C.ar    1  UNL1       -0.0025
     33 C         139.0990  144.4493  165.2839 C.ar    1  UNL1       -0.0003
     34 C         137.7932  144.2055  164.5873 C.ar    1  UNL1       -0.0000
     35 C         137.7426  144.1424  163.0895 C.ar    1  UNL1       -0.0003
     36 C         138.9978  144.3230  162.2883 C.ar    1  UNL1       -0.0025
@<TRIPOS>BOND
     1    20    21    3
     2    21    14    1
     3    14    15   ar
     4    15    16   ar
     5    16    17   ar
     6    17    13    1
     7    13    12    1
     8    12    11    1
     9    11    10    1
    10    10     1    1
    11     1     2    1
    12     2     3    1
    13     3     4    1
    14     4     5    1
    15     5    22    1
    16    22    23    1
    17    23    24    1
    18    24    25    1
    19    25    27    1
    20    27    28    2
    21    27    29    2
    22    27    30    1
    23    30    31    1
    24    31    32   ar
    25    32    33   ar
    26    33    34   ar
    27    34    35   ar
    28    35    36   ar
    29     5     6    1
    30     6     7    1
    31     7     8    1
    32     7     9    1
    33    17    18   ar
    34    18    19   ar
    35    19    14   ar
    36     8     1    1
    37     9     3    1
    38    36    31   ar
    39    25    26    1
@<TRIPOS>MOLECULE
*****
 36 39 0 0 0
SMALL
GASTEIGER

@<TRIPOS>ATOM
      1 N         144.6806  140.5116  162.8528 N.3     1  UNL1       -0.2684
      2 C         144.2436  139.0789  162.9321 C.3     1  UNL1        0.1035
      3 C         143.4414  138.4767  161.8168 C.3     1  UNL1        0.1470
      4 C         142.6391  137.8745  160.7015 C.3     1  UNL1        0.1035
      5 N         142.2739  138.7051  159.5071 N.3     1  UNL1       -0.2685
      6 C         142.7110  140.1379  159.4279 C.3     1  UNL1        0.1035
      7 C         143.5132  140.7400  160.5431 C.3     1  UNL1        0.1470
      8 C         144.3154  141.3422  161.6584 C.3     1  UNL1        0.1035
      9 O         143.0762  139.3073  160.6223 O.3     1  UNL1       -0.3530
     10 C         145.4828  141.1138  163.9681 C.3     1  UNL1        0.0761
     11 C         145.3390  142.5710  164.2935 C.3     1  UNL1        0.0646
     12 C         144.1156  143.0625  165.0090 C.3     1  UNL1        0.2068
     13 O         143.7210  142.4564  166.3231 O.3     1  UNL1       -0.4754
     14 C         139.9291  140.0548  166.6447 C.ar    1  UNL1        0.0686
     15 C         141.1011  139.5078  165.8851 C.ar    1  UNL1        0.0134
     16 C         142.3651  140.3083  165.7778 C.ar    1  UNL1        0.0376
     17 C         142.4571  141.6559  166.4303 C.ar    1  UNL1        0.1386
     18 C         141.2850  142.2029  167.1899 C.ar    1  UNL1        0.0376
     19 C         140.0210  141.4023  167.2971 C.ar    1  UNL1        0.0134
     20 N         137.4011  138.4538  166.8592 N.1     1  UNL1       -0.1908
     21 C         138.6651  139.2543  166.7519 C.1     1  UNL1        0.1004
     22 C         141.4717  138.1029  158.3918 C.3     1  UNL1        0.0737
     23 C         139.9978  138.3664  158.3010 C.3     1  UNL1        0.0361
     24 C         139.2248  138.7363  159.5320 C.3     1  UNL1        0.0925
     25 N         139.3295  140.1226  160.0950 N.3     1  UNL1       -0.1830
     26 H         138.7147  140.7145  159.5363 H       1  UNL1        0.1484
     27 S         138.9853  140.3762  161.5329 S.O2    1  UNL1        0.0450
     28 O         139.9568  139.3134  161.9528 O.2     1  UNL1       -0.1572
     29 O         138.0138  141.4391  161.1129 O.2     1  UNL1       -0.1572
     30 C         138.6412  140.6298  162.9707 C.3     1  UNL1        0.1952
     31 C         138.9125  141.9728  163.5812 C.ar    1  UNL1        0.0029
     32 C         137.8163  142.7079  164.2939 C.ar    1  UNL1       -0.0025
     33 C         138.0876  144.0509  164.9044 C.ar    1  UNL1       -0.0003
     34 C         139.4550  144.6588  164.8023 C.ar    1  UNL1       -0.0000
     35 C         140.5512  143.9237  164.0896 C.ar    1  UNL1       -0.0003
     36 C         140.2799  142.5807  163.4791 C.ar    1  UNL1       -0.0025
@<TRIPOS>BOND
     1    20    21    3
     2    21    14    1
     3    14    15   ar
     4    15    16   ar
     5    16    17   ar
     6    17    13    1
     7    13    12    1
     8    12    11    1
     9    11    10    1
    10    10     1    1
    11     1     2    1
    12     2     3    1
    13     3     4    1
    14     4     5    1
    15     5    22    1
    16    22    23    1
    17    23    24    1
    18    24    25    1
    19    25    27    1
    20    27    28    2
    21    27    29    2
    22    27    30    1
    23    30    31    1
    24    31    32   ar
    25    32    33   ar
    26    33    34   ar
    27    34    35   ar
    28    35    36   ar
    29     5     6    1
    30     6     7    1
    31     7     8    1
    32     7     9    1
    33    17    18   ar
    34    18    19   ar
    35    19    14   ar
    36     8     1    1
    37     9     3    1
    38    36    31   ar
    39    25    26    1
@<TRIPOS>MOLECULE
*****
 36 39 0 0 0
SMALL
GASTEIGER

@<TRIPOS>ATOM
      1 N         141.5996  138.5532  160.3857 N.3     1  UNL1       -0.2684
      2 C         142.3643  138.0920  161.5909 C.3     1  UNL1        0.1035
      3 C         141.6357  137.7584  162.8589 C.3     1  UNL1        0.1470
      4 C         140.9071  137.4248  164.1270 C.3     1  UNL1        0.1035
      5 N         139.4138  137.5525  164.1897 N.3     1  UNL1       -0.2685
      6 C         138.6492  138.0137  162.9845 C.3     1  UNL1        0.1035
      7 C         139.3778  138.3473  161.7165 C.3     1  UNL1        0.1470
      8 C         140.1064  138.6809  160.4485 C.3     1  UNL1        0.1035
      9 O         140.1424  137.8861  162.9217 O.3     1  UNL1       -0.3530
     10 C         142.3282  138.8868  159.1176 C.3     1  UNL1        0.0761
     11 C         143.5319  139.7810  159.1573 C.3     1  UNL1        0.0646
     12 C         143.3604  141.2634  159.3095 C.3     1  UNL1        0.2068
     13 O         143.8121  141.9455  160.5668 O.3     1  UNL1       -0.4754
     14 C         140.7821  143.7620  163.3541 C.ar    1  UNL1        0.0686
     15 C         141.9334  144.5856  162.8581 C.ar    1  UNL1        0.0134
     16 C         142.9434  143.9801  161.9290 C.ar    1  UNL1        0.0376
     17 C         142.8021  142.5509  161.4959 C.ar    1  UNL1        0.1386
     18 C         141.6508  141.7273  161.9919 C.ar    1  UNL1        0.0376
     19 C         140.6408  142.3329  162.9211 C.ar    1  UNL1        0.0134
     20 N         138.7621  144.9730  165.2124 N.1     1  UNL1       -0.1908
     21 C         139.7721  144.3675  164.2832 C.1     1  UNL1        0.1004
     22 C         138.6852  137.2189  165.4577 C.3     1  UNL1        0.0737
     23 C         138.0940  138.3152  166.2936 C.3     1  UNL1        0.0361
     24 C         138.7929  139.6382  166.3988 C.3     1  UNL1        0.0925
     25 N         139.9676  139.7948  167.3183 N.3     1  UNL1       -0.1830
     26 H         140.4860  138.9170  167.2859 H       1  UNL1        0.1484
     27 S         140.9616  140.8937  167.0849 S.O2    1  UNL1        0.0450
     28 O         141.8436  140.3232  168.1556 O.2     1  UNL1       -0.1572
     29 O         140.0795  141.4641  166.0141 O.2     1  UNL1       -0.1572
     30 C         141.9556  141.9925  166.8514 C.3     1  UNL1        0.1952
     31 C         143.0617  141.8042  165.8560 C.ar    1  UNL1        0.0029
     32 C         143.9961  142.9370  165.5498 C.ar    1  UNL1       -0.0025
     33 C         145.1022  142.7487  164.5543 C.ar    1  UNL1       -0.0003
     34 C         145.2741  141.4276  163.8650 C.ar    1  UNL1       -0.0000
     35 C         144.3398  140.2948  164.1712 C.ar    1  UNL1       -0.0003
     36 C         143.2336  140.4831  165.1667 C.ar    1  UNL1       -0.0025
@<TRIPOS>BOND
     1    20    21    3
     2    21    14    1
     3    14    15   ar
     4    15    16   ar
     5    16    17   ar
     6    17    13    1
     7    13    12    1
     8    12    11    1
     9    11    10    1
    10    10     1    1
    11     1     2    1
    12     2     3    1
    13     3     4    1
    14     4     5    1
    15     5    22    1
    16    22    23    1
    17    23    24    1
    18    24    25    1
    19    25    27    1
    20    27    28    2
    21    27    29    2
    22    27    30    1
    23    30    31    1
    24    31    32   ar
    25    32    33   ar
    26    33    34   ar
    27    34    35   ar
    28    35    36   ar
    29     5     6    1
    30     6     7    1
    31     7     8    1
    32     7     9    1
    33    17    18   ar
    34    18    19   ar
    35    19    14   ar
    36     8     1    1
    37     9     3    1
    38    36    31   ar
    39    25    26    1
@<TRIPOS>MOLECULE
*****
 36 39 0 0 0
SMALL
GASTEIGER

@<TRIPOS>ATOM
      1 N         138.1027  141.8622  162.3506 N.3     1  UNL1       -0.2684
      2 C         138.0912  140.3775  162.5640 C.3     1  UNL1        0.1035
      3 C         138.6093  139.4622  161.4946 C.3     1  UNL1        0.1470
      4 C         139.1274  138.5467  160.4252 C.3     1  UNL1        0.1035
      5 N         139.6570  139.1160  159.1425 N.3     1  UNL1       -0.2685
      6 C         139.6685  140.6007  158.9291 C.3     1  UNL1        0.1035
      7 C         139.1504  141.5161  159.9985 C.3     1  UNL1        0.1470
      8 C         138.6323  142.4315  161.0678 C.3     1  UNL1        0.1035
      9 O         139.1389  140.0314  160.2118 O.3     1  UNL1       -0.3530
     10 C         137.5845  142.7777  163.4200 C.3     1  UNL1        0.0761
     11 C         137.9360  144.2357  163.3942 C.3     1  UNL1        0.0646
     12 C         139.2442  144.7020  163.9611 C.3     1  UNL1        0.2068
     13 O         140.4651  143.8394  163.8378 O.3     1  UNL1       -0.4754
     14 C         142.1408  141.7796  167.4709 C.ar    1  UNL1        0.0686
     15 C         140.6713  142.0671  167.3828 C.ar    1  UNL1        0.0134
     16 C         140.1127  142.7537  166.1718 C.ar    1  UNL1        0.0376
     17 C         141.0237  143.1528  165.0488 C.ar    1  UNL1        0.1386
     18 C         142.4932  142.8653  165.1370 C.ar    1  UNL1        0.0376
     19 C         143.0518  142.1786  166.3480 C.ar    1  UNL1        0.0134
     20 N         143.2580  140.4063  169.8929 N.1     1  UNL1       -0.1908
     21 C         142.6994  141.0930  168.6819 C.1     1  UNL1        0.1004
     22 C         140.1752  138.2006  158.0731 C.3     1  UNL1        0.0737
     23 C         141.6204  138.2546  157.6750 C.3     1  UNL1        0.0361
     24 C         142.6783  137.7760  158.6245 C.3     1  UNL1        0.0925
     25 N         143.4688  138.7660  159.4276 N.3     1  UNL1       -0.1830
     26 H         143.6941  139.5396  158.8021 H       1  UNL1        0.1484
     27 S         142.8772  139.3695  160.6669 S.O2    1  UNL1        0.0450
     28 O         142.4040  138.0140  161.1010 O.2     1  UNL1       -0.1572
     29 O         143.3504  140.7251  160.2328 O.2     1  UNL1       -0.1572
     30 C         142.2856  139.9729  161.9062 C.3     1  UNL1        0.1952
     31 C         142.7461  139.5130  163.2577 C.ar    1  UNL1        0.0029
     32 C         141.7459  139.0364  164.2687 C.ar    1  UNL1       -0.0025
     33 C         142.2064  138.5765  165.6202 C.ar    1  UNL1       -0.0003
     34 C         143.6671  138.5933  165.9606 C.ar    1  UNL1       -0.0000
     35 C         144.6673  139.0700  164.9496 C.ar    1  UNL1       -0.0003
     36 C         144.2068  139.5299  163.5981 C.ar    1  UNL1       -0.0025
@<TRIPOS>BOND
     1    20    21    3
     2    21    14    1
     3    14    15   ar
     4    15    16   ar
     5    16    17   ar
     6    17    13    1
     7    13    12    1
     8    12    11    1
     9    11    10    1
    10    10     1    1
    11     1     2    1
    12     2     3    1
    13     3     4    1
    14     4     5    1
    15     5    22    1
    16    22    23    1
    17    23    24    1
    18    24    25    1
    19    25    27    1
    20    27    28    2
    21    27    29    2
    22    27    30    1
    23    30    31    1
    24    31    32   ar
    25    32    33   ar
    26    33    34   ar
    27    34    35   ar
    28    35    36   ar
    29     5     6    1
    30     6     7    1
    31     7     8    1
    32     7     9    1
    33    17    18   ar
    34    18    19   ar
    35    19    14   ar
    36     8     1    1
    37     9     3    1
    38    36    31   ar
    39    25    26    1
@<TRIPOS>MOLECULE
*****
 36 39 0 0 0
SMALL
GASTEIGER

@<TRIPOS>ATOM
      1 N         144.5970  140.2407  162.7847 N.3     1  UNL1       -0.2684
      2 C         144.4047  141.1354  161.5963 C.3     1  UNL1        0.1035
      3 C         143.7388  140.6077  160.3602 C.3     1  UNL1        0.1470
      4 C         143.0728  140.0800  159.1240 C.3     1  UNL1        0.1035
      5 N         142.5991  138.6575  159.0763 N.3     1  UNL1       -0.2685
      6 C         142.7915  137.7628  160.2649 C.3     1  UNL1        0.1035
      7 C         143.4574  138.2905  161.5009 C.3     1  UNL1        0.1470
      8 C         144.1234  138.8182  162.7370 C.3     1  UNL1        0.1035
      9 O         143.2651  139.1852  160.3125 O.3     1  UNL1       -0.3530
     10 C         145.2630  140.7684  164.0209 C.3     1  UNL1        0.0761
     11 C         145.2479  142.2399  164.3109 C.3     1  UNL1        0.0646
     12 C         143.9625  142.9180  164.6824 C.3     1  UNL1        0.2068
     13 O         142.6713  142.1562  164.6334 O.3     1  UNL1       -0.4754
     14 C         140.7995  140.6541  168.4400 C.ar    1  UNL1        0.0686
     15 C         140.4902  142.0365  167.9468 C.ar    1  UNL1        0.0134
     16 C         141.1141  142.5372  166.6780 C.ar    1  UNL1        0.0376
     17 C         142.0474  141.6555  165.9023 C.ar    1  UNL1        0.1386
     18 C         142.3566  140.2731  166.3954 C.ar    1  UNL1        0.0376
     19 C         141.7326  139.7724  167.6643 C.ar    1  UNL1        0.0134
     20 N         139.5516  139.6527  170.9777 N.1     1  UNL1       -0.1908
     21 C         140.1755  140.1534  169.7088 C.1     1  UNL1        0.1004
     22 C         141.9331  138.1298  157.8403 C.3     1  UNL1        0.0737
     23 C         140.4393  138.1794  157.7138 C.3     1  UNL1        0.0361
     24 C         139.5902  138.3927  158.9318 C.3     1  UNL1        0.0925
     25 N         138.6555  139.5640  158.9986 N.3     1  UNL1       -0.1830
     26 H         137.8193  139.3036  158.4758 H       1  UNL1        0.1484
     27 S         138.1916  140.0784  160.3291 S.O2    1  UNL1        0.0450
     28 O         136.8071  139.5795  160.0393 O.2     1  UNL1       -0.1572
     29 O         139.5762  140.5774  160.6190 O.2     1  UNL1       -0.1572
     30 C         137.7277  140.5928  161.6596 C.3     1  UNL1        0.1952
     31 C         138.1457  139.8959  162.9203 C.ar    1  UNL1        0.0029
     32 C         138.5626  138.4556  162.8783 C.ar    1  UNL1       -0.0025
     33 C         138.9806  137.7587  164.1391 C.ar    1  UNL1       -0.0003
     34 C         138.9817  138.5021  165.4419 C.ar    1  UNL1       -0.0000
     35 C         138.5649  139.9423  165.4839 C.ar    1  UNL1       -0.0003
     36 C         138.1469  140.6393  164.2232 C.ar    1  UNL1       -0.0025
@<TRIPOS>BOND
     1    20    21    3
     2    21    14    1
     3    14    15   ar
     4    15    16   ar
     5    16    17   ar
     6    17    13    1
     7    13    12    1
     8    12    11    1
     9    11    10    1
    10    10     1    1
    11     1     2    1
    12     2     3    1
    13     3     4    1
    14     4     5    1
    15     5    22    1
    16    22    23    1
    17    23    24    1
    18    24    25    1
    19    25    27    1
    20    27    28    2
    21    27    29    2
    22    27    30    1
    23    30    31    1
    24    31    32   ar
    25    32    33   ar
    26    33    34   ar
    27    34    35   ar
    28    35    36   ar
    29     5     6    1
    30     6     7    1
    31     7     8    1
    32     7     9    1
    33    17    18   ar
    34    18    19   ar
    35    19    14   ar
    36     8     1    1
    37     9     3    1
    38    36    31   ar
    39    25    26    1
@<TRIPOS>MOLECULE
*****
 36 39 0 0 0
SMALL
GASTEIGER

@<TRIPOS>ATOM
      1 N         143.3378  140.5570  161.6535 N.3     1  UNL1       -0.2684
      2 C         142.1141  140.4643  160.7911 C.3     1  UNL1        0.1035
      3 C         141.3545  141.7065  160.4310 C.3     1  UNL1        0.1470
      4 C         140.5948  142.9488  160.0707 C.3     1  UNL1        0.1035
      5 N         141.0590  144.2839  160.5730 N.3     1  UNL1       -0.2685
      6 C         142.2828  144.3766  161.4354 C.3     1  UNL1        0.1035
      7 C         143.0424  143.1343  161.7956 C.3     1  UNL1        0.1470
      8 C         143.8020  141.8921  162.1557 C.3     1  UNL1        0.1035
      9 O         141.8187  143.0416  160.9332 O.3     1  UNL1       -0.3530
     10 C         144.0975  139.3147  162.0137 C.3     1  UNL1        0.0761
     11 C         143.4751  138.2899  162.9150 C.3     1  UNL1        0.0646
     12 C         143.2099  138.6189  164.3543 C.3     1  UNL1        0.2068
     13 O         143.2752  140.0424  164.8225 O.3     1  UNL1       -0.4754
     14 C         140.8618  141.3509  168.3881 C.ar    1  UNL1        0.0686
     15 C         141.3828  142.3712  167.4198 C.ar    1  UNL1        0.0134
     16 C         142.1872  141.9350  166.2313 C.ar    1  UNL1        0.0376
     17 C         142.4707  140.4786  166.0111 C.ar    1  UNL1        0.1386
     18 C         141.9497  139.4583  166.9794 C.ar    1  UNL1        0.0376
     19 C         141.1452  139.8945  168.1679 C.ar    1  UNL1        0.0134
     20 N         139.2529  142.2232  170.7652 N.1     1  UNL1       -0.1908
     21 C         140.0574  141.7870  169.5766 C.1     1  UNL1        0.1004
     22 C         140.2994  145.5261  160.2128 C.3     1  UNL1        0.0737
     23 C         139.5424  146.2751  161.2692 C.3     1  UNL1        0.0361
     24 C         139.1360  145.5809  162.5352 C.3     1  UNL1        0.0925
     25 N         138.5590  144.1974  162.4799 N.3     1  UNL1       -0.1830
     26 H         139.0406  143.7075  161.7259 H       1  UNL1        0.1484
     27 S         138.6256  143.3082  163.6861 S.O2    1  UNL1        0.0450
     28 O         139.9645  143.8857  164.0378 O.2     1  UNL1       -0.1572
     29 O         137.2867  142.7307  163.3344 O.2     1  UNL1       -0.1572
     30 C         138.6923  142.4191  164.8923 C.3     1  UNL1        0.1952
     31 C         138.8848  140.9409  164.7247 C.ar    1  UNL1        0.0029
     32 C         139.6578  140.4134  163.5525 C.ar    1  UNL1       -0.0025
     33 C         139.8503  138.9353  163.3849 C.ar    1  UNL1       -0.0003
     34 C         139.2698  137.9847  164.3896 C.ar    1  UNL1       -0.0000
     35 C         138.4969  138.5122  165.5618 C.ar    1  UNL1       -0.0003
     36 C         138.3044  139.9903  165.7294 C.ar    1  UNL1       -0.0025
@<TRIPOS>BOND
     1    20    21    3
     2    21    14    1
     3    14    15   ar
     4    15    16   ar
     5    16    17   ar
     6    17    13    1
     7    13    12    1
     8    12    11    1
     9    11    10    1
    10    10     1    1
    11     1     2    1
    12     2     3    1
    13     3     4    1
    14     4     5    1
    15     5    22    1
    16    22    23    1
    17    23    24    1
    18    24    25    1
    19    25    27    1
    20    27    28    2
    21    27    29    2
    22    27    30    1
    23    30    31    1
    24    31    32   ar
    25    32    33   ar
    26    33    34   ar
    27    34    35   ar
    28    35    36   ar
    29     5     6    1
    30     6     7    1
    31     7     8    1
    32     7     9    1
    33    17    18   ar
    34    18    19   ar
    35    19    14   ar
    36     8     1    1
    37     9     3    1
    38    36    31   ar
    39    25    26    1
