@<TRIPOS>MOLECULE
*****
 32 36 0 0 0
SMALL
GASTEIGER

@<TRIPOS>ATOM
      1 N         141.2613  142.4116  166.5735 N.am    1  UNL1       -0.2203
      2 C         140.6594  142.7505  165.2420 C.3     1  UNL1        0.1415
      3 C         141.7402  143.3313  164.3790 C.3     1  UNL1        0.1561
      4 C         142.9178  143.8914  163.6378 C.3     1  UNL1        0.0425
      5 C         142.7569  144.3684  162.2248 C.3     1  UNL1        0.0160
      6 C         141.4184  144.2852  161.5530 C.3     1  UNL1        0.1122
      7 C         140.2407  143.7252  162.2942 C.3     1  UNL1        0.0160
      8 C         140.4016  143.2482  163.7071 C.3     1  UNL1        0.0425
      9 O         143.0100  143.3514  165.1771 O.3     1  UNL1       -0.4398
     10 C         142.7141  142.7830  166.5335 C.2     1  UNL1        0.4086
     11 O         143.6981  142.6154  167.6531 O.2     1  UNL1       -0.2258
     12 C         141.2576  144.7622  160.1399 C.2     1  UNL1        0.3506
     13 N         140.1080  145.5640  159.6055 N.2     1  UNL1       -0.0350
     14 C         140.3580  145.8185  158.1485 C.2     1  UNL1        0.2348
     15 C         139.5667  146.5538  157.1078 C.2     1  UNL1        0.0869
     16 C         140.0795  146.6446  155.7010 C.2     1  UNL1        0.1468
     17 C         141.3836  146.0001  155.3351 C.2     1  UNL1        0.0200
     18 C         142.1750  145.2648  156.3758 C.3     1  UNL1        0.1068
     19 C         141.6622  145.1740  157.7825 C.2     1  UNL1        0.2176
     20 N         142.2181  144.5212  159.0133 N.2     1  UNL1       -0.0389
     21 O         139.2882  147.3799  154.6603 O.2     1  UNL1       -0.4047
     22 C         139.5097  148.8483  154.4484 C.3     1  UNL1        0.5753
     23 F         139.7313  150.3166  154.2364 F       1  UNL1       -0.1328
     24 F         140.3474  148.5476  153.2410 F       1  UNL1       -0.1328
     25 F         138.6720  149.1490  155.6557 F       1  UNL1       -0.1328
     26 C         140.2081  139.6081  166.3968 C.3     1  UNL1        0.0534
     27 C         140.0110  140.4057  167.6518 C.ar    1  UNL1        0.0731
     28 N         139.2872  139.8015  168.8184 N.ar    1  UNL1       -0.2469
     29 C         139.0900  140.5991  170.0734 C.ar    1  UNL1        0.0985
     30 C         139.6166  142.0009  170.1617 C.ar    1  UNL1        0.0219
     31 C         140.3404  142.6050  168.9950 C.ar    1  UNL1        0.0178
     32 C         140.5375  141.8075  167.7401 C.ar    1  UNL1        0.0706
@<TRIPOS>BOND
     1    26    27    1
     2    27    28   ar
     3    28    29   ar
     4    29    30   ar
     5    30    31   ar
     6    31    32   ar
     7    32     1    1
     8     1     2    1
     9     3     2    1
    10     3     4    1
    11     4     5    1
    12     5     6    1
    13     6    12    1
    14    12    13    2
    15    13    14    1
    16    14    15    2
    17    15    16    1
    18    16    21    1
    19    21    22    1
    20    22    23    1
    21    22    24    1
    22    22    25    1
    23    16    17    2
    24    17    18    1
    25    18    19    1
    26    19    20    2
    27     6     7    1
    28     7     8    1
    29     3     9    1
    30     9    10    1
    31    10    11    2
    32    32    27   ar
    33    10     1   am
    34     8     3    1
    35    20    12    1
    36    19    14    1
@<TRIPOS>MOLECULE
*****
 32 36 0 0 0
SMALL
GASTEIGER

@<TRIPOS>ATOM
      1 N         142.9272  137.4538  157.7529 N.am    1  UNL1       -0.2203
      2 C         142.6163  137.4117  159.2197 C.3     1  UNL1        0.1415
      3 C         143.0871  138.6984  159.8306 C.3     1  UNL1        0.1561
      4 C         143.6055  140.0262  160.2975 C.3     1  UNL1        0.0425
      5 C         143.4939  140.4084  161.7437 C.3     1  UNL1        0.0160
      6 C         142.8640  139.4627  162.7229 C.3     1  UNL1        0.1122
      7 C         142.3457  138.1349  162.2560 C.3     1  UNL1        0.0160
      8 C         142.4572  137.7527  160.8098 C.3     1  UNL1        0.0425
      9 O         143.6890  139.5357  158.7412 O.3     1  UNL1       -0.4398
     10 C         143.5902  138.7665  157.4571 C.2     1  UNL1        0.4086
     11 O         144.0701  139.2289  156.1133 O.2     1  UNL1       -0.2258
     12 C         142.7525  139.8450  164.1692 C.2     1  UNL1        0.3506
     13 N         142.4519  141.2160  164.6981 N.2     1  UNL1       -0.0350
     14 C         142.4357  141.1416  166.1962 C.2     1  UNL1        0.2348
     15 C         142.1938  142.1812  167.2502 C.2     1  UNL1        0.0869
     16 C         142.2425  141.8036  168.7011 C.2     1  UNL1        0.1468
     17 C         142.5331  140.3866  169.0980 C.2     1  UNL1        0.0200
     18 C         142.7750  139.3470  168.0440 C.3     1  UNL1        0.1068
     19 C         142.7263  139.7245  166.5931 C.2     1  UNL1        0.2176
     20 N         142.9221  138.9232  165.3403 N.2     1  UNL1       -0.0389
     21 O         142.0007  142.8431  169.7551 O.2     1  UNL1       -0.4047
     22 C         140.6328  143.0048  170.3491 C.3     1  UNL1        0.5753
     23 F         139.2649  143.1665  170.9430 F       1  UNL1       -0.1328
     24 F         140.2683  143.9584  169.2501 F       1  UNL1       -0.1328
     25 F         140.9972  142.0512  171.4480 F       1  UNL1       -0.1328
     26 C         140.2369  137.3362  156.4307 C.3     1  UNL1        0.0534
     27 C         141.2826  136.3143  156.0957 C.ar    1  UNL1        0.0731
     28 N         140.9831  135.2336  155.0996 N.ar    1  UNL1       -0.2469
     29 C         142.0288  134.2116  154.7646 C.ar    1  UNL1        0.0985
     30 C         143.3740  134.2705  155.4257 C.ar    1  UNL1        0.0219
     31 C         143.6734  135.3512  156.4219 C.ar    1  UNL1        0.0178
     32 C         142.6278  136.3731  156.7569 C.ar    1  UNL1        0.0706
@<TRIPOS>BOND
     1    26    27    1
     2    27    28   ar
     3    28    29   ar
     4    29    30   ar
     5    30    31   ar
     6    31    32   ar
     7    32     1    1
     8     1     2    1
     9     3     2    1
    10     3     4    1
    11     4     5    1
    12     5     6    1
    13     6    12    1
    14    12    13    2
    15    13    14    1
    16    14    15    2
    17    15    16    1
    18    16    21    1
    19    21    22    1
    20    22    23    1
    21    22    24    1
    22    22    25    1
    23    16    17    2
    24    17    18    1
    25    18    19    1
    26    19    20    2
    27     6     7    1
    28     7     8    1
    29     3     9    1
    30     9    10    1
    31    10    11    2
    32    32    27   ar
    33    10     1   am
    34     8     3    1
    35    20    12    1
    36    19    14    1
@<TRIPOS>MOLECULE
*****
 32 36 0 0 0
SMALL
GASTEIGER

@<TRIPOS>ATOM
      1 N         139.8124  145.3104  156.8006 N.am    1  UNL1       -0.2203
      2 C         140.4021  145.4052  158.1766 C.3     1  UNL1        0.1415
      3 C         139.9683  144.1959  158.9511 C.3     1  UNL1        0.1561
      4 C         139.4574  142.9419  159.5963 C.3     1  UNL1        0.0425
      5 C         139.8181  142.6296  161.0184 C.3     1  UNL1        0.0160
      6 C         140.6896  143.5714  161.7952 C.3     1  UNL1        0.1122
      7 C         141.2006  144.8254  161.1500 C.3     1  UNL1        0.0160
      8 C         140.8399  145.1377  159.7279 C.3     1  UNL1        0.0425
      9 O         139.1106  143.3539  158.0537 O.3     1  UNL1       -0.4398
     10 C         139.0142  144.0427  156.7246 C.2     1  UNL1        0.4086
     11 O         138.2533  143.5502  155.5294 O.2     1  UNL1       -0.2258
     12 C         141.0503  143.2590  163.2174 C.2     1  UNL1        0.3506
     13 N         140.0874  143.0976  164.3561 N.2     1  UNL1       -0.0350
     14 C         140.8792  142.7921  165.5929 C.2     1  UNL1        0.2348
     15 C         140.4654  142.5353  167.0116 C.2     1  UNL1        0.0869
     16 C         141.5040  142.2511  168.0561 C.2     1  UNL1        0.1468
     17 C         142.9562  142.2238  167.6817 C.2     1  UNL1        0.0200
     18 C         143.3700  142.4806  166.2630 C.3     1  UNL1        0.1068
     19 C         142.3315  142.7647  165.2186 C.2     1  UNL1        0.2176
     20 N         142.4372  143.0533  163.7504 N.2     1  UNL1       -0.0389
     21 O         141.0902  141.9943  169.4748 O.2     1  UNL1       -0.4047
     22 C         140.2497  142.9998  170.2046 C.3     1  UNL1        0.5753
     23 F         139.4093  144.0053  170.9344 F       1  UNL1       -0.1328
     24 F         141.3420  144.0176  170.0603 F       1  UNL1       -0.1328
     25 F         139.1574  141.9821  170.3490 F       1  UNL1       -0.1328
     26 C         141.7375  144.7499  154.5690 C.3     1  UNL1        0.0534
     27 C         140.9523  146.0280  154.5790 C.ar    1  UNL1        0.0731
     28 N         141.1298  147.0257  153.4731 N.ar    1  UNL1       -0.2469
     29 C         140.3446  148.3038  153.4831 C.ar    1  UNL1        0.0985
     30 C         139.3821  148.5841  154.5988 C.ar    1  UNL1        0.0219
     31 C         139.2047  147.5862  155.7047 C.ar    1  UNL1        0.0178
     32 C         139.9898  146.3082  155.6948 C.ar    1  UNL1        0.0706
@<TRIPOS>BOND
     1    26    27    1
     2    27    28   ar
     3    28    29   ar
     4    29    30   ar
     5    30    31   ar
     6    31    32   ar
     7    32     1    1
     8     1     2    1
     9     3     2    1
    10     3     4    1
    11     4     5    1
    12     5     6    1
    13     6    12    1
    14    12    13    2
    15    13    14    1
    16    14    15    2
    17    15    16    1
    18    16    21    1
    19    21    22    1
    20    22    23    1
    21    22    24    1
    22    22    25    1
    23    16    17    2
    24    17    18    1
    25    18    19    1
    26    19    20    2
    27     6     7    1
    28     7     8    1
    29     3     9    1
    30     9    10    1
    31    10    11    2
    32    32    27   ar
    33    10     1   am
    34     8     3    1
    35    20    12    1
    36    19    14    1
@<TRIPOS>MOLECULE
*****
 32 36 0 0 0
SMALL
GASTEIGER

@<TRIPOS>ATOM
      1 N         141.7366  140.6865  167.5708 N.am    1  UNL1       -0.2203
      2 C         141.6087  140.8913  166.0904 C.3     1  UNL1        0.1415
      3 C         142.4002  139.8179  165.4037 C.3     1  UNL1        0.1561
      4 C         143.2282  138.6915  164.8603 C.3     1  UNL1        0.0425
      5 C         143.3765  138.5170  163.3779 C.3     1  UNL1        0.0160
      6 C         142.6968  139.4690  162.4390 C.3     1  UNL1        0.1122
      7 C         141.8687  140.5954  162.9824 C.3     1  UNL1        0.0160
      8 C         141.7204  140.7699  164.4648 C.3     1  UNL1        0.0425
      9 O         143.0173  138.9497  166.4598 O.3     1  UNL1       -0.4398
     10 C         142.6072  139.4864  167.7992 C.2     1  UNL1        0.4086
     11 O         142.9989  138.9223  169.1327 O.2     1  UNL1       -0.2258
     12 C         142.8451  139.2944  160.9565 C.2     1  UNL1        0.3506
     13 N         142.4607  138.0769  160.1692 N.2     1  UNL1       -0.0350
     14 C         142.7819  138.3368  158.7273 C.2     1  UNL1        0.2348
     15 C         142.6190  137.4966  157.4954 C.2     1  UNL1        0.0869
     16 C         143.0389  138.0346  156.1596 C.2     1  UNL1        0.1468
     17 C         143.6217  139.4128  156.0557 C.2     1  UNL1        0.0200
     18 C         143.7847  140.2530  157.2876 C.3     1  UNL1        0.1068
     19 C         143.3648  139.7151  158.6233 C.2     1  UNL1        0.2176
     20 N         143.4038  140.3069  160.0011 N.2     1  UNL1       -0.0389
     21 O         142.8759  137.1944  154.9278 O.2     1  UNL1       -0.4047
     22 C         143.1882  135.7279  154.9734 C.3     1  UNL1        0.5753
     23 F         143.5005  134.2615  155.0191 F       1  UNL1       -0.1328
     24 F         141.7567  135.4132  154.6547 F       1  UNL1       -0.1328
     25 F         144.6197  136.0427  155.2922 F       1  UNL1       -0.1328
     26 C         139.1696  139.8134  168.8546 C.3     1  UNL1        0.0534
     27 C         139.8215  141.0965  169.2778 C.ar    1  UNL1        0.0731
     28 N         139.1897  141.9429  170.3429 N.ar    1  UNL1       -0.2469
     29 C         139.8416  143.2260  170.7660 C.ar    1  UNL1        0.0985
     30 C         141.1251  143.6625  170.1241 C.ar    1  UNL1        0.0219
     31 C         141.7568  142.8159  169.0590 C.ar    1  UNL1        0.0178
     32 C         141.1050  141.5330  168.6358 C.ar    1  UNL1        0.0706
@<TRIPOS>BOND
     1    26    27    1
     2    27    28   ar
     3    28    29   ar
     4    29    30   ar
     5    30    31   ar
     6    31    32   ar
     7    32     1    1
     8     1     2    1
     9     3     2    1
    10     3     4    1
    11     4     5    1
    12     5     6    1
    13     6    12    1
    14    12    13    2
    15    13    14    1
    16    14    15    2
    17    15    16    1
    18    16    21    1
    19    21    22    1
    20    22    23    1
    21    22    24    1
    22    22    25    1
    23    16    17    2
    24    17    18    1
    25    18    19    1
    26    19    20    2
    27     6     7    1
    28     7     8    1
    29     3     9    1
    30     9    10    1
    31    10    11    2
    32    32    27   ar
    33    10     1   am
    34     8     3    1
    35    20    12    1
    36    19    14    1
@<TRIPOS>MOLECULE
*****
 32 36 0 0 0
SMALL
GASTEIGER

@<TRIPOS>ATOM
      1 N         140.0199  141.5656  165.0641 N.am    1  UNL1       -0.2203
      2 C         141.2102  141.2714  164.2000 C.3     1  UNL1        0.1415
      3 C         140.9450  141.8387  162.8369 C.3     1  UNL1        0.1561
      4 C         140.5414  142.4545  161.5300 C.3     1  UNL1        0.0425
      5 C         141.4677  142.3886  160.3521 C.3     1  UNL1        0.0160
      6 C         142.7976  141.7069  160.4810 C.3     1  UNL1        0.1122
      7 C         143.2012  141.0911  161.7879 C.3     1  UNL1        0.0160
      8 C         142.2749  141.1570  162.9658 C.3     1  UNL1        0.0425
      9 O         139.5908  142.4835  162.8586 O.3     1  UNL1       -0.4398
     10 C         139.0190  142.3147  164.2352 C.2     1  UNL1        0.4086
     11 O         137.6814  142.8084  164.7009 O.2     1  UNL1       -0.2258
     12 C         143.7239  141.6409  159.3030 C.2     1  UNL1        0.3506
     13 N         144.8724  142.5668  159.0316 N.2     1  UNL1       -0.0350
     14 C         145.5226  142.1357  157.7505 C.2     1  UNL1        0.2348
     15 C         146.6982  142.6747  156.9905 C.2     1  UNL1        0.0869
     16 C         147.1270  142.0214  155.7101 C.2     1  UNL1        0.1468
     17 C         146.3803  140.8291  155.1897 C.2     1  UNL1        0.0200
     18 C         145.2048  140.2900  155.9497 C.3     1  UNL1        0.1068
     19 C         144.7760  140.9433  157.2300 C.2     1  UNL1        0.2176
     20 N         143.6643  140.6376  158.1896 N.2     1  UNL1       -0.0389
     21 O         148.3025  142.5605  154.9501 O.2     1  UNL1       -0.4047
     22 C         149.5500  141.7383  154.8162 C.3     1  UNL1        0.5753
     23 F         150.7974  140.9162  154.6823 F       1  UNL1       -0.1328
     24 F         149.1942  141.4305  153.3919 F       1  UNL1       -0.1328
     25 F         149.9058  142.0461  156.2405 F       1  UNL1       -0.1328
     26 C         138.4894  139.0895  165.7897 C.3     1  UNL1        0.0534
     27 C         139.0936  139.9406  166.8671 C.ar    1  UNL1        0.0731
     28 N         138.9324  139.5535  168.3074 N.ar    1  UNL1       -0.2469
     29 C         139.5366  140.4046  169.3848 C.ar    1  UNL1        0.0985
     30 C         140.3018  141.6426  169.0219 C.ar    1  UNL1        0.0219
     31 C         140.4629  142.0296  167.5817 C.ar    1  UNL1        0.0178
     32 C         139.8588  141.1786  166.5043 C.ar    1  UNL1        0.0706
@<TRIPOS>BOND
     1    26    27    1
     2    27    28   ar
     3    28    29   ar
     4    29    30   ar
     5    30    31   ar
     6    31    32   ar
     7    32     1    1
     8     1     2    1
     9     3     2    1
    10     3     4    1
    11     4     5    1
    12     5     6    1
    13     6    12    1
    14    12    13    2
    15    13    14    1
    16    14    15    2
    17    15    16    1
    18    16    21    1
    19    21    22    1
    20    22    23    1
    21    22    24    1
    22    22    25    1
    23    16    17    2
    24    17    18    1
    25    18    19    1
    26    19    20    2
    27     6     7    1
    28     7     8    1
    29     3     9    1
    30     9    10    1
    31    10    11    2
    32    32    27   ar
    33    10     1   am
    34     8     3    1
    35    20    12    1
    36    19    14    1
@<TRIPOS>MOLECULE
*****
 32 36 0 0 0
SMALL
GASTEIGER

@<TRIPOS>ATOM
      1 N         139.8527  140.2371  166.9148 N.am    1  UNL1       -0.2203
      2 C         140.1884  140.9447  165.6355 C.3     1  UNL1        0.1415
      3 C         139.1158  140.6286  164.6356 C.3     1  UNL1        0.1561
      4 C         137.9758  140.2258  163.7480 C.3     1  UNL1        0.0425
      5 C         137.9129  140.7250  162.3349 C.3     1  UNL1        0.0160
      6 C         138.9900  141.6271  161.8095 C.3     1  UNL1        0.1122
      7 C         140.1301  142.0299  162.6972 C.3     1  UNL1        0.0160
      8 C         140.1930  141.5307  164.1102 C.3     1  UNL1        0.0425
      9 O         138.1171  139.7257  165.2970 O.3     1  UNL1       -0.4398
     10 C         138.5725  139.4837  166.7057 C.2     1  UNL1        0.4086
     11 O         137.8710  138.6371  167.7259 O.2     1  UNL1       -0.2258
     12 C         138.9271  142.1263  160.3964 C.2     1  UNL1        0.3506
     13 N         139.6344  143.3334  159.8554 N.2     1  UNL1       -0.0350
     14 C         139.2902  143.4591  158.4008 C.2     1  UNL1        0.2348
     15 C         139.6957  144.4561  157.3560 C.2     1  UNL1        0.0869
     16 C         139.1812  144.3237  155.9532 C.2     1  UNL1        0.1468
     17 C         138.2612  143.1943  155.5953 C.2     1  UNL1        0.0200
     18 C         137.8557  142.1973  156.6401 C.3     1  UNL1        0.1068
     19 C         138.3702  142.3297  158.0428 C.2     1  UNL1        0.2176
     20 N         138.1458  141.5060  159.2762 N.2     1  UNL1       -0.0389
     21 O         139.5867  145.3207  154.9084 O.2     1  UNL1       -0.4047
     22 C         139.2224  146.7668  155.0703 C.3     1  UNL1        0.5753
     23 F         138.8582  148.2129  155.2321 F       1  UNL1       -0.1328
     24 F         140.6712  147.1117  155.2492 F       1  UNL1       -0.1328
     25 F         137.7736  146.4220  154.8913 F       1  UNL1       -0.1328
     26 C         142.6469  139.1459  166.9525 C.3     1  UNL1        0.0534
     27 C         142.0531  139.7305  168.1998 C.ar    1  UNL1        0.0731
     28 N         142.8565  139.7694  169.4659 N.ar    1  UNL1       -0.2469
     29 C         142.2627  140.3540  170.7132 C.ar    1  UNL1        0.0985
     30 C         140.8656  140.8996  170.6943 C.ar    1  UNL1        0.0219
     31 C         140.0622  140.8606  169.4282 C.ar    1  UNL1        0.0178
     32 C         140.6560  140.2761  168.1809 C.ar    1  UNL1        0.0706
@<TRIPOS>BOND
     1    26    27    1
     2    27    28   ar
     3    28    29   ar
     4    29    30   ar
     5    30    31   ar
     6    31    32   ar
     7    32     1    1
     8     1     2    1
     9     3     2    1
    10     3     4    1
    11     4     5    1
    12     5     6    1
    13     6    12    1
    14    12    13    2
    15    13    14    1
    16    14    15    2
    17    15    16    1
    18    16    21    1
    19    21    22    1
    20    22    23    1
    21    22    24    1
    22    22    25    1
    23    16    17    2
    24    17    18    1
    25    18    19    1
    26    19    20    2
    27     6     7    1
    28     7     8    1
    29     3     9    1
    30     9    10    1
    31    10    11    2
    32    32    27   ar
    33    10     1   am
    34     8     3    1
    35    20    12    1
    36    19    14    1
@<TRIPOS>MOLECULE
*****
 32 36 0 0 0
SMALL
GASTEIGER

@<TRIPOS>ATOM
      1 N         140.3859  140.5250  167.1570 N.am    1  UNL1       -0.2203
      2 C         140.9196  140.5276  165.7552 C.3     1  UNL1        0.1415
      3 C         140.0685  139.6053  164.9334 C.3     1  UNL1        0.1561
      4 C         139.1346  138.6565  164.2424 C.3     1  UNL1        0.0425
      5 C         139.3121  138.3591  162.7830 C.3     1  UNL1        0.0160
      6 C         140.4234  139.0105  162.0146 C.3     1  UNL1        0.1122
      7 C         141.3574  139.9593  162.7056 C.3     1  UNL1        0.0160
      8 C         141.1799  140.2567  164.1650 C.3     1  UNL1        0.0425
      9 O         139.0089  139.0327  165.8275 O.3     1  UNL1       -0.4398
     10 C         139.2050  139.6011  167.2018 C.2     1  UNL1        0.4086
     11 O         138.3674  139.2987  168.4088 O.2     1  UNL1       -0.2258
     12 C         140.6009  138.7130  160.5550 C.2     1  UNL1        0.3506
     13 N         141.8261  138.1286  159.9169 N.2     1  UNL1       -0.0350
     14 C         141.5667  138.0022  158.4450 C.2     1  UNL1        0.2348
     15 C         142.4131  137.4915  157.3168 C.2     1  UNL1        0.0869
     16 C         141.8739  137.4870  155.9170 C.2     1  UNL1        0.1468
     17 C         140.4883  137.9933  155.6455 C.2     1  UNL1        0.0200
     18 C         139.6419  138.5041  156.7736 C.3     1  UNL1        0.1068
     19 C         140.1810  138.5085  158.1733 C.2     1  UNL1        0.2176
     20 N         139.5842  138.9478  159.4774 N.2     1  UNL1       -0.0389
     21 O         142.7203  136.9763  154.7889 O.2     1  UNL1       -0.4047
     22 C         143.0488  135.5154  154.6995 C.3     1  UNL1        0.5753
     23 F         143.3772  134.0545  154.6102 F       1  UNL1       -0.1328
     24 F         144.4146  135.7885  155.2560 F       1  UNL1       -0.1328
     25 F         141.6829  135.2423  154.1431 F       1  UNL1       -0.1328
     26 C         142.5195  139.3335  168.8972 C.3     1  UNL1        0.0534
     27 C         142.0032  140.7130  169.1816 C.ar    1  UNL1        0.0731
     28 N         142.5538  141.4966  170.3360 N.ar    1  UNL1       -0.2469
     29 C         142.0375  142.8760  170.6204 C.ar    1  UNL1        0.0985
     30 C         140.9708  143.4716  169.7502 C.ar    1  UNL1        0.0219
     31 C         140.4202  142.6880  168.5958 C.ar    1  UNL1        0.0178
     32 C         140.9364  141.3086  168.3114 C.ar    1  UNL1        0.0706
@<TRIPOS>BOND
     1    26    27    1
     2    27    28   ar
     3    28    29   ar
     4    29    30   ar
     5    30    31   ar
     6    31    32   ar
     7    32     1    1
     8     1     2    1
     9     3     2    1
    10     3     4    1
    11     4     5    1
    12     5     6    1
    13     6    12    1
    14    12    13    2
    15    13    14    1
    16    14    15    2
    17    15    16    1
    18    16    21    1
    19    21    22    1
    20    22    23    1
    21    22    24    1
    22    22    25    1
    23    16    17    2
    24    17    18    1
    25    18    19    1
    26    19    20    2
    27     6     7    1
    28     7     8    1
    29     3     9    1
    30     9    10    1
    31    10    11    2
    32    32    27   ar
    33    10     1   am
    34     8     3    1
    35    20    12    1
    36    19    14    1
@<TRIPOS>MOLECULE
*****
 32 36 0 0 0
SMALL
GASTEIGER

@<TRIPOS>ATOM
      1 N         141.3438  138.1332  157.5610 N.am    1  UNL1       -0.2203
      2 C         140.8878  138.6143  158.9066 C.3     1  UNL1        0.1415
      3 C         141.9839  138.3393  159.8931 C.3     1  UNL1        0.1561
      4 C         143.1612  138.0036  160.7597 C.3     1  UNL1        0.0425
      5 C         143.1294  138.3235  162.2248 C.3     1  UNL1        0.0160
      6 C         141.9203  138.9791  162.8233 C.3     1  UNL1        0.1122
      7 C         140.7430  139.3148  161.9567 C.3     1  UNL1        0.0160
      8 C         140.7747  138.9949  160.4916 C.3     1  UNL1        0.0425
      9 O         143.1172  137.6883  159.1571 O.3     1  UNL1       -0.4398
     10 C         142.7217  137.5609  157.7158 C.2     1  UNL1        0.4086
     11 O         143.5572  136.9657  156.6215 O.2     1  UNL1       -0.2258
     12 C         141.8886  139.2990  164.2885 C.2     1  UNL1        0.3506
     13 N         140.9716  140.2798  164.9572 N.2     1  UNL1       -0.0350
     14 C         141.2846  140.2812  166.4242 C.2     1  UNL1        0.2348
     15 C         140.7019  141.0482  167.5740 C.2     1  UNL1        0.0869
     16 C         141.2297  140.8352  168.9619 C.2     1  UNL1        0.1468
     17 C         142.3401  139.8553  169.1999 C.2     1  UNL1        0.0200
     18 C         142.9228  139.0883  168.0500 C.3     1  UNL1        0.1068
     19 C         142.3950  139.3012  166.6622 C.2     1  UNL1        0.2176
     20 N         142.7683  138.6942  165.3423 N.2     1  UNL1       -0.0389
     21 O         140.6470  141.6022  170.1118 O.2     1  UNL1       -0.4047
     22 C         140.5805  143.0998  170.0575 C.3     1  UNL1        0.5753
     23 F         140.5139  144.5973  170.0033 F       1  UNL1       -0.1328
     24 F         139.2096  143.0609  170.6651 F       1  UNL1       -0.1328
     25 F         141.9513  143.1388  169.4499 F       1  UNL1       -0.1328
     26 C         141.7884  140.4142  155.6637 C.3     1  UNL1        0.0534
     27 C         140.7819  139.3513  155.3360 C.ar    1  UNL1        0.0731
     28 N         139.9977  139.4290  154.0597 N.ar    1  UNL1       -0.2469
     29 C         138.9912  138.3661  153.7320 C.ar    1  UNL1        0.0985
     30 C         138.7689  137.2257  154.6807 C.ar    1  UNL1        0.0219
     31 C         139.5531  137.1480  155.9570 C.ar    1  UNL1        0.0178
     32 C         140.5596  138.2109  156.2847 C.ar    1  UNL1        0.0706
@<TRIPOS>BOND
     1    26    27    1
     2    27    28   ar
     3    28    29   ar
     4    29    30   ar
     5    30    31   ar
     6    31    32   ar
     7    32     1    1
     8     1     2    1
     9     3     2    1
    10     3     4    1
    11     4     5    1
    12     5     6    1
    13     6    12    1
    14    12    13    2
    15    13    14    1
    16    14    15    2
    17    15    16    1
    18    16    21    1
    19    21    22    1
    20    22    23    1
    21    22    24    1
    22    22    25    1
    23    16    17    2
    24    17    18    1
    25    18    19    1
    26    19    20    2
    27     6     7    1
    28     7     8    1
    29     3     9    1
    30     9    10    1
    31    10    11    2
    32    32    27   ar
    33    10     1   am
    34     8     3    1
    35    20    12    1
    36    19    14    1
@<TRIPOS>MOLECULE
*****
 32 36 0 0 0
SMALL
GASTEIGER

@<TRIPOS>ATOM
      1 N         139.3083  144.3857  156.7893 N.am    1  UNL1       -0.2203
      2 C         139.4487  143.5920  158.0543 C.3     1  UNL1        0.1415
      3 C         140.0913  144.4723  159.0850 C.3     1  UNL1        0.1561
      4 C         140.7366  145.4649  160.0060 C.3     1  UNL1        0.0425
      5 C         141.0648  145.0758  161.4169 C.3     1  UNL1        0.0160
      6 C         140.7476  143.6940  161.9069 C.3     1  UNL1        0.1122
      7 C         140.1022  142.7014  160.9860 C.3     1  UNL1        0.0160
      8 C         139.7740  143.0906  159.5751 C.3     1  UNL1        0.0425
      9 O         140.3480  145.8101  158.4570 O.3     1  UNL1       -0.4398
     10 C         139.8641  145.7566  157.0381 C.2     1  UNL1        0.4086
     11 O         139.9253  146.8772  156.0428 O.2     1  UNL1       -0.2258
     12 C         141.0758  143.3049  163.3180 C.2     1  UNL1        0.3506
     13 N         140.0868  143.0764  164.4223 N.2     1  UNL1       -0.0350
     14 C         140.8504  142.7063  165.6592 C.2     1  UNL1        0.2348
     15 C         140.4041  142.3695  167.0511 C.2     1  UNL1        0.0869
     16 C         141.4189  142.0323  168.1031 C.2     1  UNL1        0.1468
     17 C         142.8798  142.0320  167.7632 C.2     1  UNL1        0.0200
     18 C         143.3261  142.3688  166.3712 C.3     1  UNL1        0.1068
     19 C         142.3114  142.7059  165.3193 C.2     1  UNL1        0.2176
     20 N         142.4507  143.0759  163.8723 N.2     1  UNL1       -0.0389
     21 O         140.9727  141.6955  169.4950 O.2     1  UNL1       -0.4047
     22 C         139.6489  141.0258  169.7168 C.3     1  UNL1        0.5753
     23 F         138.3251  140.3562  169.9386 F       1  UNL1       -0.1328
     24 F         139.1132  142.2869  170.3273 F       1  UNL1       -0.1328
     25 F         140.1845  139.7647  169.1063 F       1  UNL1       -0.1328
     26 C         141.0517  143.0354  154.7553 C.3     1  UNL1        0.0534
     27 C         139.5878  143.2196  154.4846 C.ar    1  UNL1        0.0731
     28 N         138.9958  142.7286  153.1968 N.ar    1  UNL1       -0.2469
     29 C         137.5319  142.9128  152.9261 C.ar    1  UNL1        0.0985
     30 C         136.6602  143.5880  153.9431 C.ar    1  UNL1        0.0219
     31 C         137.2524  144.0789  155.2309 C.ar    1  UNL1        0.0178
     32 C         138.7162  143.8948  155.5016 C.ar    1  UNL1        0.0706
@<TRIPOS>BOND
     1    26    27    1
     2    27    28   ar
     3    28    29   ar
     4    29    30   ar
     5    30    31   ar
     6    31    32   ar
     7    32     1    1
     8     1     2    1
     9     3     2    1
    10     3     4    1
    11     4     5    1
    12     5     6    1
    13     6    12    1
    14    12    13    2
    15    13    14    1
    16    14    15    2
    17    15    16    1
    18    16    21    1
    19    21    22    1
    20    22    23    1
    21    22    24    1
    22    22    25    1
    23    16    17    2
    24    17    18    1
    25    18    19    1
    26    19    20    2
    27     6     7    1
    28     7     8    1
    29     3     9    1
    30     9    10    1
    31    10    11    2
    32    32    27   ar
    33    10     1   am
    34     8     3    1
    35    20    12    1
    36    19    14    1
