@<TRIPOS>MOLECULE
*****
 32 36 0 0 0
SMALL
GASTEIGER

@<TRIPOS>ATOM
      1 C         142.3039  143.5287  158.7221 C.2     1  UNL1        0.0596
      2 C         141.8246  142.5879  159.7876 C.2     1  UNL1        0.0324
      3 C         140.7588  143.0238  160.7488 C.2     1  UNL1        0.0889
      4 N         140.0916  142.3211  161.8939 N.2     1  UNL1       -0.2236
      5 C         139.0927  143.2635  162.4972 C.2     1  UNL1        0.1859
      6 N         139.1424  144.5485  161.7251 N.2     1  UNL1       -0.2387
      7 C         140.1722  144.4004  160.6445 C.3     1  UNL1        0.1679
      8 C         140.6514  145.3411  159.5790 C.2     1  UNL1        0.0164
      9 C         141.7173  144.9052  158.6178 C.2     1  UNL1        0.0690
     10 CL        142.1966  145.8460  157.5523 Cl      1  UNL1       -0.0812
     11 N         145.5017  142.2211  155.8385 N.3     1  UNL1       -0.2698
     12 C         145.8048  142.3099  157.3049 C.3     1  UNL1        0.0938
     13 C         144.7389  142.7457  158.2660 C.3     1  UNL1        0.1081
     14 N         143.3699  143.0928  157.7609 N.pl3   1  UNL1       -0.3040
     15 C         143.0667  143.0041  156.2945 C.3     1  UNL1        0.1081
     16 C         144.1326  142.5682  155.3334 C.3     1  UNL1        0.0938
     17 C         147.9944  141.6935  155.3307 C.3     1  UNL1        0.0188
     18 C         146.5675  141.7853  154.8773 C.3     1  UNL1        0.0722
     19 S         138.2005  142.9720  163.6674 S.3     1  UNL1       -0.0777
     20 C         138.3913  141.7134  164.4607 C.3     1  UNL1        0.0461
     21 C         137.3121  141.2669  163.5194 C.3     1  UNL1        0.0113
     22 C         139.4042  142.5970  165.1265 C.3     1  UNL1        0.0108
     23 C         140.2332  142.0669  166.2587 C.3     1  UNL1        0.0084
     24 C         140.0491  140.6531  166.7252 C.3     1  UNL1        0.0603
     25 C         139.0362  139.7696  166.0594 C.3     1  UNL1        0.0084
     26 C         138.2072  140.2997  164.9272 C.3     1  UNL1        0.0108
     27 C         140.8780  140.1231  167.8574 C.ar    1  UNL1        0.1605
     28 N         142.2770  139.5921  167.7528 N.ar    1  UNL1       -0.1127
     29 N         142.7170  139.1718  169.1237 N.ar    1  UNL1       -0.0230
     30 N         141.5900  139.4429  170.0758 N.ar    1  UNL1       -0.0431
     31 N         140.4534  140.0309  169.2931 N.ar    1  UNL1       -0.2149
     32 C         139.1253  140.4526  169.8486 C.3     1  UNL1        0.1569
@<TRIPOS>BOND
     1    17    18    1
     2    18    11    1
     3    11    12    1
     4    12    13    1
     5    13    14    1
     6    14     1    1
     7     1     2    2
     8     2     3    1
     9     3     4    2
    10     4     5    1
    11     5    19    1
    12    19    20    1
    13    20    21    1
    14    20    22    1
    15    22    23    1
    16    23    24    1
    17    24    27    1
    18    27    28   ar
    19    28    29   ar
    20    29    30   ar
    21    30    31   ar
    22    31    32    1
    23    24    25    1
    24    25    26    1
    25     5     6    2
    26     6     7    1
    27     7     8    1
    28     8     9    2
    29     9    10    1
    30    14    15    1
    31    15    16    1
    32    16    11    1
    33     9     1    1
    34     7     3    1
    35    26    20    1
    36    31    27   ar
@<TRIPOS>MOLECULE
*****
 32 36 0 0 0
SMALL
GASTEIGER

@<TRIPOS>ATOM
      1 C         140.9182  138.9797  159.0324 C.2     1  UNL1        0.0596
      2 C         140.1417  138.5236  160.2321 C.2     1  UNL1        0.0324
      3 C         139.7708  139.5060  161.3032 C.2     1  UNL1        0.0889
      4 N         139.0155  139.3505  162.5898 N.2     1  UNL1       -0.2236
      5 C         138.9542  140.6928  163.2564 C.2     1  UNL1        0.1859
      6 N         139.6716  141.6779  162.3818 N.2     1  UNL1       -0.2387
      7 C         140.1763  140.9444  161.1746 C.3     1  UNL1        0.1679
      8 C         140.9527  141.4004  159.9750 C.2     1  UNL1        0.0164
      9 C         141.3236  140.4180  158.9039 C.2     1  UNL1        0.0690
     10 CL        142.1000  140.8741  157.7041 Cl      1  UNL1       -0.0812
     11 N         142.0309  136.0324  155.8190 N.3     1  UNL1       -0.2698
     12 C         140.6656  136.6536  155.8268 C.3     1  UNL1        0.0938
     13 C         140.2947  137.6360  156.8979 C.3     1  UNL1        0.1081
     14 N         141.2891  137.9972  157.9612 N.pl3   1  UNL1       -0.3040
     15 C         142.6544  137.3760  157.9535 C.3     1  UNL1        0.1081
     16 C         143.0253  136.3936  156.8824 C.3     1  UNL1        0.0938
     17 C         141.6545  133.7552  154.6264 C.3     1  UNL1        0.0188
     18 C         142.4019  135.0500  154.7480 C.3     1  UNL1        0.0722
     19 S         138.2918  140.9967  164.5675 S.3     1  UNL1       -0.0777
     20 C         138.9766  140.6417  165.8539 C.3     1  UNL1        0.0461
     21 C         138.1512  139.4062  165.6486 C.3     1  UNL1        0.0113
     22 C         139.5642  142.0006  165.6123 C.3     1  UNL1        0.0108
     23 C         140.5500  142.5754  166.5860 C.3     1  UNL1        0.0084
     24 C         140.9482  141.7912  167.8012 C.3     1  UNL1        0.0603
     25 C         140.3606  140.4324  168.0426 C.3     1  UNL1        0.0084
     26 C         139.3748  139.8576  167.0690 C.3     1  UNL1        0.0108
     27 C         141.9340  142.3660  168.7748 C.ar    1  UNL1        0.1605
     28 N         143.4093  142.0960  168.7989 N.ar    1  UNL1       -0.1127
     29 N         144.0045  142.8748  169.9342 N.ar    1  UNL1       -0.0230
     30 N         142.8972  143.6262  170.6118 N.ar    1  UNL1       -0.0431
     31 N         141.6174  143.3117  169.8953 N.ar    1  UNL1       -0.2149
     32 C         140.2596  143.8486  170.2388 C.3     1  UNL1        0.1569
@<TRIPOS>BOND
     1    17    18    1
     2    18    11    1
     3    11    12    1
     4    12    13    1
     5    13    14    1
     6    14     1    1
     7     1     2    2
     8     2     3    1
     9     3     4    2
    10     4     5    1
    11     5    19    1
    12    19    20    1
    13    20    21    1
    14    20    22    1
    15    22    23    1
    16    23    24    1
    17    24    27    1
    18    27    28   ar
    19    28    29   ar
    20    29    30   ar
    21    30    31   ar
    22    31    32    1
    23    24    25    1
    24    25    26    1
    25     5     6    2
    26     6     7    1
    27     7     8    1
    28     8     9    2
    29     9    10    1
    30    14    15    1
    31    15    16    1
    32    16    11    1
    33     9     1    1
    34     7     3    1
    35    26    20    1
    36    31    27   ar
@<TRIPOS>MOLECULE
*****
 32 36 0 0 0
SMALL
GASTEIGER

@<TRIPOS>ATOM
      1 C         142.9320  138.4789  158.2143 C.2     1  UNL1        0.0596
      2 C         143.0420  137.9035  159.5952 C.2     1  UNL1        0.0324
      3 C         143.5354  138.7565  160.7260 C.2     1  UNL1        0.0889
      4 N         143.7482  138.4676  162.1824 N.2     1  UNL1       -0.2236
      5 C         144.2633  139.7175  162.8325 C.2     1  UNL1        0.1859
      6 N         144.3688  140.7788  161.7778 N.2     1  UNL1       -0.2387
      7 C         143.9190  140.1850  160.4759 C.3     1  UNL1        0.1679
      8 C         143.8090  140.7603  159.0950 C.2     1  UNL1        0.0164
      9 C         143.3155  139.9072  157.9642 C.2     1  UNL1        0.0690
     10 CL        143.2056  140.4826  156.5833 Cl      1  UNL1       -0.0812
     11 N         141.4515  135.9196  154.8218 N.3     1  UNL1       -0.2698
     12 C         140.4720  136.6313  155.7073 C.3     1  UNL1        0.0938
     13 C         140.9655  137.4843  156.8381 C.3     1  UNL1        0.1081
     14 N         142.4385  137.6258  157.0834 N.pl3   1  UNL1       -0.3040
     15 C         143.4181  136.9141  156.1979 C.3     1  UNL1        0.1081
     16 C         142.9246  136.0611  155.0671 C.3     1  UNL1        0.0938
     17 C         141.3354  135.4021  152.2784 C.3     1  UNL1        0.0188
     18 C         140.9582  135.0666  153.6910 C.3     1  UNL1        0.0722
     19 S         144.6117  139.8778  164.2826 S.3     1  UNL1       -0.0777
     20 C         143.7190  140.6777  165.1844 C.3     1  UNL1        0.0461
     21 C         144.3376  141.7840  164.3822 C.3     1  UNL1        0.0113
     22 C         143.4104  139.2936  165.6734 C.3     1  UNL1        0.0108
     23 C         142.4240  139.0936  166.7856 C.3     1  UNL1        0.0084
     24 C         141.7462  140.2778  167.4089 C.3     1  UNL1        0.0603
     25 C         142.0548  141.6619  166.9198 C.3     1  UNL1        0.0084
     26 C         143.0412  141.8619  165.8076 C.3     1  UNL1        0.0108
     27 C         140.7598  140.0778  168.5211 C.ar    1  UNL1        0.1605
     28 N         139.2865  139.8451  168.3618 N.ar    1  UNL1       -0.1127
     29 N         138.6897  139.6989  169.7301 N.ar    1  UNL1       -0.0230
     30 N         139.7941  139.8413  170.7352 N.ar    1  UNL1       -0.0431
     31 N         141.0735  140.0755  169.9879 N.ar    1  UNL1       -0.2149
     32 C         142.4287  140.2727  170.6000 C.3     1  UNL1        0.1569
@<TRIPOS>BOND
     1    17    18    1
     2    18    11    1
     3    11    12    1
     4    12    13    1
     5    13    14    1
     6    14     1    1
     7     1     2    2
     8     2     3    1
     9     3     4    2
    10     4     5    1
    11     5    19    1
    12    19    20    1
    13    20    21    1
    14    20    22    1
    15    22    23    1
    16    23    24    1
    17    24    27    1
    18    27    28   ar
    19    28    29   ar
    20    29    30   ar
    21    30    31   ar
    22    31    32    1
    23    24    25    1
    24    25    26    1
    25     5     6    2
    26     6     7    1
    27     7     8    1
    28     8     9    2
    29     9    10    1
    30    14    15    1
    31    15    16    1
    32    16    11    1
    33     9     1    1
    34     7     3    1
    35    26    20    1
    36    31    27   ar
@<TRIPOS>MOLECULE
*****
 32 36 0 0 0
SMALL
GASTEIGER

@<TRIPOS>ATOM
      1 C         142.3187  140.3177  158.4804 C.2     1  UNL1        0.0596
      2 C         141.9713  140.3646  159.9390 C.2     1  UNL1        0.0324
      3 C         142.3193  141.5747  160.7542 C.2     1  UNL1        0.0889
      4 N         142.1047  141.9054  162.2015 N.2     1  UNL1       -0.2236
      5 C         142.6675  143.2730  162.4527 C.2     1  UNL1        0.1859
      6 N         143.2298  143.7874  161.1608 N.2     1  UNL1       -0.2387
      7 C         143.0146  142.7378  160.1110 C.3     1  UNL1        0.1679
      8 C         143.3619  142.6909  158.6525 C.2     1  UNL1        0.0164
      9 C         143.0140  141.4808  157.8373 C.2     1  UNL1        0.0690
     10 CL        143.3614  141.4339  156.3788 Cl      1  UNL1       -0.0812
     11 N         141.2749  136.6875  156.0346 N.3     1  UNL1       -0.2698
     12 C         142.5085  136.6876  156.8879 C.3     1  UNL1        0.0938
     13 C         142.8565  137.8976  157.7031 C.3     1  UNL1        0.1081
     14 N         141.9707  139.1076  157.6651 N.pl3   1  UNL1       -0.3040
     15 C         140.7371  139.1075  156.8119 C.3     1  UNL1        0.1081
     16 C         140.3892  137.8975  155.9966 C.3     1  UNL1        0.0938
     17 C         141.6524  134.1847  155.4484 C.3     1  UNL1        0.0188
     18 C         140.9269  135.4775  155.2193 C.3     1  UNL1        0.0722
     19 S         142.6678  143.9987  163.7655 S.3     1  UNL1       -0.0777
     20 C         142.8164  143.2322  165.0462 C.3     1  UNL1        0.0461
     21 C         144.2574  143.3564  164.6483 C.3     1  UNL1        0.0113
     22 C         141.3239  143.3742  164.9993 C.3     1  UNL1        0.0108
     23 C         140.4803  142.7928  166.0950 C.3     1  UNL1        0.0084
     24 C         141.1294  142.0694  167.2376 C.3     1  UNL1        0.0603
     25 C         142.6219  141.9274  167.2844 C.3     1  UNL1        0.0084
     26 C         143.4655  142.5088  166.1887 C.3     1  UNL1        0.0108
     27 C         140.2859  141.4880  168.3332 C.ar    1  UNL1        0.1605
     28 N         139.6322  140.1380  168.3207 N.ar    1  UNL1       -0.1127
     29 N         138.8903  139.9702  169.6135 N.ar    1  UNL1       -0.0230
     30 N         139.0854  141.2165  170.4251 N.ar    1  UNL1       -0.0431
     31 N         139.9480  142.1546  169.6338 N.ar    1  UNL1       -0.2149
     32 C         140.3943  143.5196  170.0670 C.3     1  UNL1        0.1569
@<TRIPOS>BOND
     1    17    18    1
     2    18    11    1
     3    11    12    1
     4    12    13    1
     5    13    14    1
     6    14     1    1
     7     1     2    2
     8     2     3    1
     9     3     4    2
    10     4     5    1
    11     5    19    1
    12    19    20    1
    13    20    21    1
    14    20    22    1
    15    22    23    1
    16    23    24    1
    17    24    27    1
    18    27    28   ar
    19    28    29   ar
    20    29    30   ar
    21    30    31   ar
    22    31    32    1
    23    24    25    1
    24    25    26    1
    25     5     6    2
    26     6     7    1
    27     7     8    1
    28     8     9    2
    29     9    10    1
    30    14    15    1
    31    15    16    1
    32    16    11    1
    33     9     1    1
    34     7     3    1
    35    26    20    1
    36    31    27   ar
@<TRIPOS>MOLECULE
*****
 32 36 0 0 0
SMALL
GASTEIGER

@<TRIPOS>ATOM
      1 C         143.4089  140.8902  159.2387 C.2     1  UNL1        0.0596
      2 C         143.7132  139.8921  160.3163 C.2     1  UNL1        0.0324
      3 C         142.7002  139.6116  161.3864 C.2     1  UNL1        0.0889
      4 N         142.7181  138.6878  162.5680 N.2     1  UNL1       -0.2236
      5 C         141.4120  138.8345  163.2909 C.2     1  UNL1        0.1859
      6 N         140.5869  139.8490  162.5560 N.2     1  UNL1       -0.2387
      7 C         141.3831  140.3293  161.3790 C.3     1  UNL1        0.1679
      8 C         141.0789  141.3274  160.3014 C.2     1  UNL1        0.0164
      9 C         142.0918  141.6078  159.2313 C.2     1  UNL1        0.0690
     10 CL        141.7875  142.6060  158.1536 Cl      1  UNL1       -0.0812
     11 N         146.4478  141.7317  156.0282 N.3     1  UNL1       -0.2698
     12 C         146.3542  142.6296  157.2261 C.3     1  UNL1        0.0938
     13 C         145.3412  142.3491  158.2962 C.3     1  UNL1        0.1081
     14 N         144.4219  141.1707  158.1685 N.pl3   1  UNL1       -0.3040
     15 C         144.5156  140.2728  156.9705 C.3     1  UNL1        0.1081
     16 C         145.5285  140.5533  155.9004 C.3     1  UNL1        0.0938
     17 C         148.9190  141.7871  155.2280 C.3     1  UNL1        0.0188
     18 C         147.4607  142.0121  154.9580 C.3     1  UNL1        0.0722
     19 S         141.0028  138.0963  164.5309 S.3     1  UNL1       -0.0777
     20 C         140.2818  138.8186  165.6302 C.3     1  UNL1        0.0461
     21 C         139.1503  138.0156  165.0603 C.3     1  UNL1        0.0113
     22 C         141.6638  139.3707  165.8183 C.3     1  UNL1        0.0108
     23 C         141.9319  140.3663  166.9078 C.3     1  UNL1        0.0084
     24 C         140.8179  140.8097  167.8093 C.3     1  UNL1        0.0603
     25 C         139.4360  140.2576  167.6211 C.3     1  UNL1        0.0084
     26 C         139.1679  139.2620  166.5316 C.3     1  UNL1        0.0108
     27 C         141.0860  141.8052  168.8988 C.ar    1  UNL1        0.1605
     28 N         140.5333  143.1975  168.9765 N.ar    1  UNL1       -0.1127
     29 N         141.0595  143.8360  170.2276 N.ar    1  UNL1       -0.0230
     30 N         141.9375  142.8384  170.9232 N.ar    1  UNL1       -0.0431
     31 N         141.9539  141.5832  170.1019 N.ar    1  UNL1       -0.2149
     32 C         142.7060  140.3267  170.4267 C.3     1  UNL1        0.1569
@<TRIPOS>BOND
     1    17    18    1
     2    18    11    1
     3    11    12    1
     4    12    13    1
     5    13    14    1
     6    14     1    1
     7     1     2    2
     8     2     3    1
     9     3     4    2
    10     4     5    1
    11     5    19    1
    12    19    20    1
    13    20    21    1
    14    20    22    1
    15    22    23    1
    16    23    24    1
    17    24    27    1
    18    27    28   ar
    19    28    29   ar
    20    29    30   ar
    21    30    31   ar
    22    31    32    1
    23    24    25    1
    24    25    26    1
    25     5     6    2
    26     6     7    1
    27     7     8    1
    28     8     9    2
    29     9    10    1
    30    14    15    1
    31    15    16    1
    32    16    11    1
    33     9     1    1
    34     7     3    1
    35    26    20    1
    36    31    27   ar
@<TRIPOS>MOLECULE
*****
 32 36 0 0 0
SMALL
GASTEIGER

@<TRIPOS>ATOM
      1 C         142.8352  140.2840  158.5112 C.2     1  UNL1        0.0596
      2 C         141.9936  140.5674  159.7201 C.2     1  UNL1        0.0324
      3 C         142.3646  141.6874  160.6464 C.2     1  UNL1        0.0889
      4 N         141.7316  142.1994  161.9062 N.2     1  UNL1       -0.2236
      5 C         142.5529  143.3525  162.4020 C.2     1  UNL1        0.1859
      6 N         143.6935  143.5531  161.4487 N.2     1  UNL1       -0.2387
      7 C         143.5772  142.5240  160.3637 C.3     1  UNL1        0.1679
      8 C         144.4187  142.2406  159.1547 C.2     1  UNL1        0.0164
      9 C         144.0476  141.1206  158.2285 C.2     1  UNL1        0.0690
     10 CL        144.8892  140.8372  157.0195 Cl      1  UNL1       -0.0812
     11 N         141.7220  136.9241  155.7323 N.3     1  UNL1       -0.2698
     12 C         141.3724  138.3387  155.3765 C.3     1  UNL1        0.0938
     13 C         141.7434  139.4586  156.3027 C.3     1  UNL1        0.1081
     14 N         142.4641  139.1640  157.5848 N.pl3   1  UNL1       -0.3040
     15 C         142.8137  137.7494  157.9407 C.3     1  UNL1        0.1081
     16 C         142.4427  136.6294  157.0144 C.3     1  UNL1        0.0938
     17 C         142.2899  134.6507  154.6101 C.3     1  UNL1        0.0188
     18 C         141.3510  135.8040  154.8061 C.3     1  UNL1        0.0722
     19 S         142.2813  144.1628  163.6348 S.3     1  UNL1       -0.0777
     20 C         141.6332  143.5217  164.8260 C.3     1  UNL1        0.0461
     21 C         140.4613  144.2698  164.2631 C.3     1  UNL1        0.0113
     22 C         143.0302  142.9961  164.9752 C.3     1  UNL1        0.0108
     23 C         143.3721  142.0893  166.1202 C.3     1  UNL1        0.0084
     24 C         142.3169  141.7081  167.1159 C.3     1  UNL1        0.0603
     25 C         140.9200  142.2336  166.9666 C.3     1  UNL1        0.0084
     26 C         140.5781  143.1404  165.8216 C.3     1  UNL1        0.0108
     27 C         142.6588  140.8013  168.2608 C.ar    1  UNL1        0.1605
     28 N         142.6952  139.3023  168.2179 N.ar    1  UNL1       -0.1127
     29 N         143.0832  138.8089  169.5802 N.ar    1  UNL1       -0.0230
     30 N         143.2868  140.0029  170.4651 N.ar    1  UNL1       -0.0431
     31 N         143.0245  141.2343  169.6496 N.ar    1  UNL1       -0.2149
     32 C         143.1124  142.6501  170.1373 C.3     1  UNL1        0.1569
@<TRIPOS>BOND
     1    17    18    1
     2    18    11    1
     3    11    12    1
     4    12    13    1
     5    13    14    1
     6    14     1    1
     7     1     2    2
     8     2     3    1
     9     3     4    2
    10     4     5    1
    11     5    19    1
    12    19    20    1
    13    20    21    1
    14    20    22    1
    15    22    23    1
    16    23    24    1
    17    24    27    1
    18    27    28   ar
    19    28    29   ar
    20    29    30   ar
    21    30    31   ar
    22    31    32    1
    23    24    25    1
    24    25    26    1
    25     5     6    2
    26     6     7    1
    27     7     8    1
    28     8     9    2
    29     9    10    1
    30    14    15    1
    31    15    16    1
    32    16    11    1
    33     9     1    1
    34     7     3    1
    35    26    20    1
    36    31    27   ar
@<TRIPOS>MOLECULE
*****
 32 36 0 0 0
SMALL
GASTEIGER

@<TRIPOS>ATOM
      1 C         141.3727  142.3309  159.7631 C.2     1  UNL1        0.0596
      2 C         140.4129  141.8577  160.8143 C.2     1  UNL1        0.0324
      3 C         140.8274  140.7893  161.7820 C.2     1  UNL1        0.0889
      4 N         140.1032  140.1268  162.9164 N.2     1  UNL1       -0.2236
      5 C         141.0300  139.1220  163.5340 C.2     1  UNL1        0.1859
      6 N         142.3269  139.1635  162.7814 N.2     1  UNL1       -0.2387
      7 C         142.2016  140.1939  161.6986 C.3     1  UNL1        0.1679
      8 C         143.1614  140.6671  160.6475 C.2     1  UNL1        0.0164
      9 C         142.7469  141.7355  159.6797 C.2     1  UNL1        0.0690
     10 CL        143.7068  142.2086  158.6285 Cl      1  UNL1       -0.0812
     11 N         140.1293  145.5364  156.8598 N.3     1  UNL1       -0.2698
     12 C         140.8948  145.9011  158.0971 C.3     1  UNL1        0.0938
     13 C         141.3093  144.8326  159.0648 C.3     1  UNL1        0.1081
     14 N         140.9582  143.3994  158.7953 N.pl3   1  UNL1       -0.3040
     15 C         140.1927  143.0347  157.5580 C.3     1  UNL1        0.1081
     16 C         139.7782  144.1031  156.5903 C.3     1  UNL1        0.0938
     17 C         138.8998  147.7713  156.3665 C.3     1  UNL1        0.0188
     18 C         139.7148  146.6047  155.8920 C.3     1  UNL1        0.0722
     19 S         140.7152  138.2319  164.6997 S.3     1  UNL1       -0.0777
     20 C         139.9062  138.7580  165.8481 C.3     1  UNL1        0.0461
     21 C         138.8223  138.1025  165.0447 C.3     1  UNL1        0.0113
     22 C         141.2711  139.2309  166.2526 C.3     1  UNL1        0.0108
     23 C         141.4506  140.0021  167.5266 C.3     1  UNL1        0.0084
     24 C         140.2652  140.3006  168.3960 C.3     1  UNL1        0.0603
     25 C         138.9004  139.8277  167.9914 C.3     1  UNL1        0.0084
     26 C         138.7209  139.0565  166.7174 C.3     1  UNL1        0.0108
     27 C         140.4447  141.0718  169.6699 C.ar    1  UNL1        0.1605
     28 N         139.4726  142.0566  170.2489 N.ar    1  UNL1       -0.1127
     29 N         140.0549  142.5871  171.5254 N.ar    1  UNL1       -0.0230
     30 N         141.3870  141.9302  171.7353 N.ar    1  UNL1       -0.0431
     31 N         141.6279  140.9937  170.5886 N.ar    1  UNL1       -0.2149
     32 C         142.8393  140.1306  170.3945 C.3     1  UNL1        0.1569
@<TRIPOS>BOND
     1    17    18    1
     2    18    11    1
     3    11    12    1
     4    12    13    1
     5    13    14    1
     6    14     1    1
     7     1     2    2
     8     2     3    1
     9     3     4    2
    10     4     5    1
    11     5    19    1
    12    19    20    1
    13    20    21    1
    14    20    22    1
    15    22    23    1
    16    23    24    1
    17    24    27    1
    18    27    28   ar
    19    28    29   ar
    20    29    30   ar
    21    30    31   ar
    22    31    32    1
    23    24    25    1
    24    25    26    1
    25     5     6    2
    26     6     7    1
    27     7     8    1
    28     8     9    2
    29     9    10    1
    30    14    15    1
    31    15    16    1
    32    16    11    1
    33     9     1    1
    34     7     3    1
    35    26    20    1
    36    31    27   ar
@<TRIPOS>MOLECULE
*****
 32 36 0 0 0
SMALL
GASTEIGER

@<TRIPOS>ATOM
      1 C         141.9748  143.3913  158.8784 C.2     1  UNL1        0.0596
      2 C         141.6446  143.3111  160.3394 C.2     1  UNL1        0.0324
      3 C         142.6741  142.8238  161.3154 C.2     1  UNL1        0.0889
      4 N         142.6380  142.6380  162.8034 N.2     1  UNL1       -0.2236
      5 C         143.9754  142.1160  163.2379 C.2     1  UNL1        0.1859
      6 N         144.8381  141.9792  162.0185 N.2     1  UNL1       -0.2387
      7 C         144.0339  142.4166  160.8303 C.3     1  UNL1        0.1679
      8 C         144.3641  142.4968  159.3693 C.2     1  UNL1        0.0164
      9 C         143.3345  142.9841  158.3934 C.2     1  UNL1        0.0690
     10 CL        143.6647  143.0643  156.9323 Cl      1  UNL1       -0.0812
     11 N         138.8860  144.8532  155.9505 N.3     1  UNL1       -0.2698
     12 C         138.9905  143.3897  156.2622 C.3     1  UNL1        0.0938
     13 C         140.0200  142.9024  157.2382 C.3     1  UNL1        0.1081
     14 N         140.9452  143.8786  157.9024 N.pl3   1  UNL1       -0.3040
     15 C         140.8407  145.3421  157.5907 C.3     1  UNL1        0.1081
     16 C         139.8111  145.8294  156.6147 C.3     1  UNL1        0.0938
     17 C         136.9774  144.3584  154.2586 C.3     1  UNL1        0.0188
     18 C         137.8565  145.3406  154.9746 C.3     1  UNL1        0.0722
     19 S         144.3792  141.7883  164.6449 S.3     1  UNL1       -0.0777
     20 C         143.6323  140.7398  165.4147 C.3     1  UNL1        0.0461
     21 C         144.3622  139.8717  164.4330 C.3     1  UNL1        0.0113
     22 C         143.1617  141.9720  166.1290 C.3     1  UNL1        0.0108
     23 C         142.1977  141.8542  167.2722 C.3     1  UNL1        0.0084
     24 C         141.7043  140.5041  167.7011 C.3     1  UNL1        0.0603
     25 C         142.1749  139.2720  166.9867 C.3     1  UNL1        0.0084
     26 C         143.1388  139.3898  165.8435 C.3     1  UNL1        0.0108
     27 C         140.7403  140.3863  168.8443 C.ar    1  UNL1        0.1605
     28 N         139.3403  139.8536  168.7658 N.ar    1  UNL1       -0.1127
     29 N         138.7419  139.9187  170.1396 N.ar    1  UNL1       -0.0230
     30 N         139.7720  140.4915  171.0673 N.ar    1  UNL1       -0.0431
     31 N         141.0072  140.7806  170.2667 N.ar    1  UNL1       -0.2149
     32 C         142.2848  141.3618  170.7956 C.3     1  UNL1        0.1569
@<TRIPOS>BOND
     1    17    18    1
     2    18    11    1
     3    11    12    1
     4    12    13    1
     5    13    14    1
     6    14     1    1
     7     1     2    2
     8     2     3    1
     9     3     4    2
    10     4     5    1
    11     5    19    1
    12    19    20    1
    13    20    21    1
    14    20    22    1
    15    22    23    1
    16    23    24    1
    17    24    27    1
    18    27    28   ar
    19    28    29   ar
    20    29    30   ar
    21    30    31   ar
    22    31    32    1
    23    24    25    1
    24    25    26    1
    25     5     6    2
    26     6     7    1
    27     7     8    1
    28     8     9    2
    29     9    10    1
    30    14    15    1
    31    15    16    1
    32    16    11    1
    33     9     1    1
    34     7     3    1
    35    26    20    1
    36    31    27   ar
@<TRIPOS>MOLECULE
*****
 32 36 0 0 0
SMALL
GASTEIGER

@<TRIPOS>ATOM
      1 C         139.3898  141.0638  158.8213 C.2     1  UNL1        0.0596
      2 C         139.4159  141.2929  160.3036 C.2     1  UNL1        0.0324
      3 C         139.6930  140.1497  161.2343 C.2     1  UNL1        0.0889
      4 N         139.7820  140.0718  162.7296 N.2     1  UNL1       -0.2236
      5 C         140.0879  138.6514  163.1024 C.2     1  UNL1        0.1859
      6 N         140.1880  137.8515  161.8374 N.2     1  UNL1       -0.2387
      7 C         139.9440  138.7775  160.6829 C.3     1  UNL1        0.1679
      8 C         139.9178  138.5485  159.2007 C.2     1  UNL1        0.0164
      9 C         139.6408  139.6917  158.2700 C.2     1  UNL1        0.0690
     10 CL        139.6146  139.4626  156.7877 Cl      1  UNL1       -0.0812
     11 N         138.5585  144.4934  156.0290 N.3     1  UNL1       -0.2698
     12 C         137.5478  143.3972  156.1921 C.3     1  UNL1        0.0938
     13 C         137.8249  142.2540  157.1228 C.3     1  UNL1        0.1081
     14 N         139.1127  142.2071  157.8905 N.pl3   1  UNL1       -0.3040
     15 C         140.1234  143.3034  157.7275 C.3     1  UNL1        0.1081
     16 C         139.8463  144.4465  156.7967 C.3     1  UNL1        0.0938
     17 C         139.3206  146.6968  154.8825 C.3     1  UNL1        0.0188
     18 C         138.2815  145.6366  155.0983 C.3     1  UNL1        0.0722
     19 S         140.2629  138.1236  164.4955 S.3     1  UNL1       -0.0777
     20 C         141.0499  138.9096  165.5019 C.3     1  UNL1        0.0461
     21 C         142.1689  138.2315  164.7684 C.3     1  UNL1        0.0113
     22 C         139.6576  139.3147  165.8860 C.3     1  UNL1        0.0108
     23 C         139.4408  140.2703  167.0217 C.3     1  UNL1        0.0084
     24 C         140.6165  140.8208  167.7734 C.3     1  UNL1        0.0603
     25 C         142.0087  140.4156  167.3893 C.3     1  UNL1        0.0084
     26 C         142.2254  139.4601  166.2536 C.3     1  UNL1        0.0108
     27 C         140.3997  141.7764  168.9092 C.ar    1  UNL1        0.1605
     28 N         140.3321  143.2711  168.8031 N.ar    1  UNL1       -0.1127
     29 N         140.1031  143.8234  170.1788 N.ar    1  UNL1       -0.0230
     30 N         140.0292  142.6701  171.1350 N.ar    1  UNL1       -0.0431
     31 N         140.2126  141.4049  170.3504 N.ar    1  UNL1       -0.2149
     32 C         140.2093  140.0127  170.9088 C.3     1  UNL1        0.1569
@<TRIPOS>BOND
     1    17    18    1
     2    18    11    1
     3    11    12    1
     4    12    13    1
     5    13    14    1
     6    14     1    1
     7     1     2    2
     8     2     3    1
     9     3     4    2
    10     4     5    1
    11     5    19    1
    12    19    20    1
    13    20    21    1
    14    20    22    1
    15    22    23    1
    16    23    24    1
    17    24    27    1
    18    27    28   ar
    19    28    29   ar
    20    29    30   ar
    21    30    31   ar
    22    31    32    1
    23    24    25    1
    24    25    26    1
    25     5     6    2
    26     6     7    1
    27     7     8    1
    28     8     9    2
    29     9    10    1
    30    14    15    1
    31    15    16    1
    32    16    11    1
    33     9     1    1
    34     7     3    1
    35    26    20    1
    36    31    27   ar
