@<TRIPOS>MOLECULE
*****
 30 33 0 0 0
SMALL
GASTEIGER

@<TRIPOS>ATOM
      1 C         138.4752  145.2210  162.4730 C.3     1  UNL1        0.0281
      2 C         139.4704  144.1482  162.1429 C.3     1  UNL1        0.1170
      3 C         140.1471  144.1391  160.8043 C.ar    1  UNL1        0.0907
      4 N         140.0362  145.0496  159.6174 N.ar    1  UNL1       -0.2267
      5 C         140.9629  144.5396  158.5538 C.ar    1  UNL1        0.1822
      6 N         141.6464  143.3139  159.0833 N.ar    1  UNL1       -0.2918
      7 C         141.1422  143.0663  160.4742 C.ar    1  UNL1        0.0596
      8 C         141.4606  142.0027  161.4828 C.3     1  UNL1        0.0669
      9 C         140.7839  142.0118  162.8214 C.3     1  UNL1        0.1003
     10 N         139.7889  143.0845  163.1515 N.am    1  UNL1       -0.2720
     11 C         139.1122  143.0936  164.4902 C.2     1  UNL1        0.2501
     12 O         138.1170  144.1664  164.8203 O.2     1  UNL1       -0.2699
     13 C         142.6567  142.4818  158.3506 C.ar    1  UNL1        0.0653
     14 C         142.2216  141.2487  157.6157 C.ar    1  UNL1        0.0199
     15 C         143.2320  140.4165  156.8830 C.ar    1  UNL1        0.0311
     16 C         144.6773  140.8175  156.8851 C.ar    1  UNL1        0.1402
     17 F         145.6876  139.9855  156.1524 F       1  UNL1       -0.2042
     18 C         145.1123  142.0507  157.6201 C.ar    1  UNL1        0.0311
     19 C         144.1021  142.8828  158.3528 C.ar    1  UNL1        0.0199
     20 C         139.4306  142.0300  165.4988 C.ar    1  UNL1        0.0641
     21 C         140.3969  142.3154  166.6101 C.ar    1  UNL1        0.0054
     22 C         140.7153  141.2517  167.6187 C.ar    1  UNL1        0.0001
     23 C         140.0675  139.9028  167.5160 C.ar    1  UNL1        0.0047
     24 C         139.1012  139.6174  166.4047 C.ar    1  UNL1        0.0821
     25 C         138.7827  140.6810  165.3961 C.ar    1  UNL1        0.0659
     26 CL        137.8164  140.3956  164.2849 Cl      1  UNL1       -0.0822
     27 C         138.4533  138.2684  166.3021 C.3     1  UNL1        0.4194
     28 F         137.8055  136.9194  166.1995 F       1  UNL1       -0.1658
     29 F         139.5447  137.8146  165.3785 F       1  UNL1       -0.1658
     30 F         137.3620  138.7222  167.2257 F       1  UNL1       -0.1658
@<TRIPOS>BOND
     1     2     1    1
     2     2     3    1
     3     3     4   ar
     4     4     5   ar
     5     5     6   ar
     6     6    13    1
     7    13    14   ar
     8    14    15   ar
     9    15    16   ar
    10    16    17    1
    11    16    18   ar
    12    18    19   ar
    13     6     7   ar
    14     7     8    1
    15     8     9    1
    16     9    10    1
    17    10    11   am
    18    11    12    2
    19    11    20    1
    20    20    21   ar
    21    21    22   ar
    22    22    23   ar
    23    23    24   ar
    24    24    27    1
    25    27    28    1
    26    27    29    1
    27    27    30    1
    28    24    25   ar
    29    25    26    1
    30    10     2    1
    31    25    20   ar
    32     7     3   ar
    33    19    13   ar
@<TRIPOS>MOLECULE
*****
 30 33 0 0 0
SMALL
GASTEIGER

@<TRIPOS>ATOM
      1 C         144.9248  139.4563  163.9104 C.3     1  UNL1        0.0281
      2 C         143.7880  140.3559  163.5252 C.3     1  UNL1        0.1170
      3 C         143.8763  141.1841  162.2777 C.ar    1  UNL1        0.0907
      4 N         144.9489  141.3216  161.2382 N.ar    1  UNL1       -0.2267
      5 C         144.4749  142.3062  160.2106 C.ar    1  UNL1        0.1822
      6 N         143.1094  142.7771  160.6150 N.ar    1  UNL1       -0.2918
      7 C         142.7394  142.0836  161.8926 C.ar    1  UNL1        0.0596
      8 C         141.5142  142.1550  162.7550 C.3     1  UNL1        0.0669
      9 C         141.4259  141.3269  164.0025 C.3     1  UNL1        0.1003
     10 N         142.5627  140.4273  164.3876 N.am    1  UNL1       -0.2720
     11 C         142.4743  139.5991  165.6352 C.2     1  UNL1        0.2501
     12 O         143.6112  138.6996  166.0203 O.2     1  UNL1       -0.2699
     13 C         142.2625  143.7677  159.8723 C.ar    1  UNL1        0.0653
     14 C         142.4588  143.9660  158.3985 C.ar    1  UNL1        0.0199
     15 C         141.6119  144.9566  157.6557 C.ar    1  UNL1        0.0311
     16 C         140.5689  145.7488  158.3867 C.ar    1  UNL1        0.1402
     17 F         139.7221  146.7393  157.6439 F       1  UNL1       -0.2042
     18 C         140.3727  145.5504  159.8606 C.ar    1  UNL1        0.0311
     19 C         141.2195  144.5599  160.6033 C.ar    1  UNL1        0.0199
     20 C         141.2491  139.6705  166.4976 C.ar    1  UNL1        0.0641
     21 C         139.9575  139.0790  166.0161 C.ar    1  UNL1        0.0054
     22 C         138.7323  139.1505  166.8786 C.ar    1  UNL1        0.0001
     23 C         138.7987  139.8133  168.2224 C.ar    1  UNL1        0.0047
     24 C         140.0904  140.4048  168.7040 C.ar    1  UNL1        0.0821
     25 C         141.3156  140.3334  167.8416 C.ar    1  UNL1        0.0659
     26 CL        142.6072  140.9249  168.3231 Cl      1  UNL1       -0.0822
     27 C         140.1568  141.0677  170.0479 C.3     1  UNL1        0.4194
     28 F         140.2232  141.7306  171.3919 F       1  UNL1       -0.1658
     29 F         140.4440  139.7418  170.6878 F       1  UNL1       -0.1658
     30 F         139.8697  142.3937  169.4081 F       1  UNL1       -0.1658
@<TRIPOS>BOND
     1     2     1    1
     2     2     3    1
     3     3     4   ar
     4     4     5   ar
     5     5     6   ar
     6     6    13    1
     7    13    14   ar
     8    14    15   ar
     9    15    16   ar
    10    16    17    1
    11    16    18   ar
    12    18    19   ar
    13     6     7   ar
    14     7     8    1
    15     8     9    1
    16     9    10    1
    17    10    11   am
    18    11    12    2
    19    11    20    1
    20    20    21   ar
    21    21    22   ar
    22    22    23   ar
    23    23    24   ar
    24    24    27    1
    25    27    28    1
    26    27    29    1
    27    27    30    1
    28    24    25   ar
    29    25    26    1
    30    10     2    1
    31    25    20   ar
    32     7     3   ar
    33    19    13   ar
@<TRIPOS>MOLECULE
*****
 30 33 0 0 0
SMALL
GASTEIGER

@<TRIPOS>ATOM
      1 C         143.7539  137.8513  160.9245 C.3     1  UNL1        0.0281
      2 C         142.3797  138.1267  160.3897 C.3     1  UNL1        0.1170
      3 C         142.1184  138.0448  158.9149 C.ar    1  UNL1        0.0907
      4 N         143.0107  137.7187  157.7542 N.ar    1  UNL1       -0.2267
      5 C         142.1880  137.7925  156.5021 C.ar    1  UNL1        0.1822
      6 N         140.7872  138.1643  156.8891 N.ar    1  UNL1       -0.2918
      7 C         140.7443  138.3202  158.3803 C.ar    1  UNL1        0.0596
      8 C         139.6314  138.6775  159.3205 C.3     1  UNL1        0.0669
      9 C         139.8927  138.7593  160.7952 C.3     1  UNL1        0.1003
     10 N         141.2668  138.4839  161.3299 N.am    1  UNL1       -0.2720
     11 C         141.5281  138.5657  162.8048 C.2     1  UNL1        0.2501
     12 O         142.9022  138.2903  163.3394 O.2     1  UNL1       -0.2699
     13 C         139.6323  138.3478  155.9497 C.ar    1  UNL1        0.0653
     14 C         138.9600  139.6842  155.8399 C.ar    1  UNL1        0.0199
     15 C         137.8050  139.8679  154.9005 C.ar    1  UNL1        0.0311
     16 C         137.3224  138.7151  154.0710 C.ar    1  UNL1        0.1402
     17 F         136.1675  138.8987  153.1316 F       1  UNL1       -0.2042
     18 C         137.9948  137.3787  154.1808 C.ar    1  UNL1        0.0311
     19 C         139.1497  137.1951  155.1201 C.ar    1  UNL1        0.0199
     20 C         140.4152  138.9230  163.7449 C.ar    1  UNL1        0.0641
     21 C         139.7587  137.8560  164.5698 C.ar    1  UNL1        0.0054
     22 C         138.6458  138.2133  165.5100 C.ar    1  UNL1        0.0001
     23 C         138.1895  139.6374  165.6252 C.ar    1  UNL1        0.0047
     24 C         138.8460  140.7045  164.8002 C.ar    1  UNL1        0.0821
     25 C         139.9589  140.3473  163.8601 C.ar    1  UNL1        0.0659
     26 CL        140.6153  141.4143  163.0352 Cl      1  UNL1       -0.0822
     27 C         138.3896  142.1287  164.9155 C.3     1  UNL1        0.4194
     28 F         137.9332  143.5530  165.0307 F       1  UNL1       -0.1658
     29 F         137.3328  141.8737  163.8820 F       1  UNL1       -0.1658
     30 F         139.4464  142.3837  165.9490 F       1  UNL1       -0.1658
@<TRIPOS>BOND
     1     2     1    1
     2     2     3    1
     3     3     4   ar
     4     4     5   ar
     5     5     6   ar
     6     6    13    1
     7    13    14   ar
     8    14    15   ar
     9    15    16   ar
    10    16    17    1
    11    16    18   ar
    12    18    19   ar
    13     6     7   ar
    14     7     8    1
    15     8     9    1
    16     9    10    1
    17    10    11   am
    18    11    12    2
    19    11    20    1
    20    20    21   ar
    21    21    22   ar
    22    22    23   ar
    23    23    24   ar
    24    24    27    1
    25    27    28    1
    26    27    29    1
    27    27    30    1
    28    24    25   ar
    29    25    26    1
    30    10     2    1
    31    25    20   ar
    32     7     3   ar
    33    19    13   ar
@<TRIPOS>MOLECULE
*****
 30 33 0 0 0
SMALL
GASTEIGER

@<TRIPOS>ATOM
      1 C         138.4835  138.9269  162.8465 C.3     1  UNL1        0.0281
      2 C         139.4521  139.8775  163.4855 C.3     1  UNL1        0.1170
      3 C         139.5373  139.9693  164.9803 C.ar    1  UNL1        0.0907
      4 N         138.7998  139.2545  166.0734 N.ar    1  UNL1       -0.2267
      5 C         139.3126  139.7633  167.3880 C.ar    1  UNL1        0.1822
      6 N         140.3670  140.7925  167.1074 N.ar    1  UNL1       -0.2918
      7 C         140.5060  140.9198  165.6192 C.ar    1  UNL1        0.0596
      8 C         141.3893  141.7785  164.7635 C.3     1  UNL1        0.0669
      9 C         141.3040  141.6867  163.2687 C.3     1  UNL1        0.1003
     10 N         140.3355  140.7362  162.6298 N.am    1  UNL1       -0.2720
     11 C         140.2502  140.6443  161.1349 C.2     1  UNL1        0.2501
     12 O         139.2816  139.6938  160.4960 O.2     1  UNL1       -0.2699
     13 C         141.1458  141.5597  168.1345 C.ar    1  UNL1        0.0653
     14 C         140.4868  142.6668  168.9024 C.ar    1  UNL1        0.0199
     15 C         141.2656  143.4341  169.9296 C.ar    1  UNL1        0.0311
     16 C         142.7033  143.0941  170.1887 C.ar    1  UNL1        0.1402
     17 F         143.4821  143.8613  171.2158 F       1  UNL1       -0.2042
     18 C         143.3623  141.9869  169.4206 C.ar    1  UNL1        0.0311
     19 C         142.5836  141.2197  168.3936 C.ar    1  UNL1        0.0199
     20 C         141.1336  141.5030  160.2792 C.ar    1  UNL1        0.0641
     21 C         142.5244  141.0506  159.9462 C.ar    1  UNL1        0.0054
     22 C         143.4077  141.9093  159.0904 C.ar    1  UNL1        0.0001
     23 C         142.9002  143.2204  158.5676 C.ar    1  UNL1        0.0047
     24 C         141.5093  143.6729  158.9006 C.ar    1  UNL1        0.0821
     25 C         140.6260  142.8142  159.7564 C.ar    1  UNL1        0.0659
     26 CL        139.2352  143.2667  160.0893 Cl      1  UNL1       -0.0822
     27 C         141.0019  144.9840  158.3777 C.3     1  UNL1        0.4194
     28 F         140.4944  146.2952  157.8549 F       1  UNL1       -0.1658
     29 F         141.4729  145.6651  159.6285 F       1  UNL1       -0.1658
     30 F         140.5309  144.3030  157.1270 F       1  UNL1       -0.1658
@<TRIPOS>BOND
     1     2     1    1
     2     2     3    1
     3     3     4   ar
     4     4     5   ar
     5     5     6   ar
     6     6    13    1
     7    13    14   ar
     8    14    15   ar
     9    15    16   ar
    10    16    17    1
    11    16    18   ar
    12    18    19   ar
    13     6     7   ar
    14     7     8    1
    15     8     9    1
    16     9    10    1
    17    10    11   am
    18    11    12    2
    19    11    20    1
    20    20    21   ar
    21    21    22   ar
    22    22    23   ar
    23    23    24   ar
    24    24    27    1
    25    27    28    1
    26    27    29    1
    27    27    30    1
    28    24    25   ar
    29    25    26    1
    30    10     2    1
    31    25    20   ar
    32     7     3   ar
    33    19    13   ar
@<TRIPOS>MOLECULE
*****
 30 33 0 0 0
SMALL
GASTEIGER

@<TRIPOS>ATOM
      1 C         137.8634  137.9871  162.0561 C.3     1  UNL1        0.0281
      2 C         138.8422  139.1149  161.9147 C.3     1  UNL1        0.1170
      3 C         138.8246  139.9736  160.6849 C.ar    1  UNL1        0.0907
      4 N         137.9654  139.9488  159.4557 N.ar    1  UNL1       -0.2267
      5 C         138.4131  141.0613  158.5547 C.ar    1  UNL1        0.1822
      6 N         139.5492  141.7737  159.2270 N.ar    1  UNL1       -0.2918
      7 C         139.8035  141.1014  160.5436 C.ar    1  UNL1        0.0596
      8 C         140.7999  141.3705  161.6320 C.3     1  UNL1        0.0669
      9 C         140.8175  140.5118  162.8618 C.3     1  UNL1        0.1003
     10 N         139.8387  139.3841  163.0031 N.am    1  UNL1       -0.2720
     11 C         139.8563  138.5254  164.2330 C.2     1  UNL1        0.2501
     12 O         138.8775  137.3976  164.3743 O.2     1  UNL1       -0.2699
     13 C         140.2991  142.9514  158.6790 C.ar    1  UNL1        0.0653
     14 C         141.3406  142.7499  157.6185 C.ar    1  UNL1        0.0199
     15 C         142.0907  143.9277  157.0704 C.ar    1  UNL1        0.0311
     16 C         141.7992  145.3069  157.5828 C.ar    1  UNL1        0.1402
     17 F         142.5492  146.4847  157.0347 F       1  UNL1       -0.2042
     18 C         140.7576  145.5084  158.6433 C.ar    1  UNL1        0.0311
     19 C         140.0076  144.3307  159.1914 C.ar    1  UNL1        0.0199
     20 C         140.8527  138.7945  165.3214 C.ar    1  UNL1        0.0641
     21 C         142.2287  138.2026  165.2417 C.ar    1  UNL1        0.0054
     22 C         143.2251  138.4717  166.3302 C.ar    1  UNL1        0.0001
     23 C         142.8455  139.3327  167.4983 C.ar    1  UNL1        0.0047
     24 C         141.4695  139.9247  167.5780 C.ar    1  UNL1        0.0821
     25 C         140.4731  139.6555  166.4896 C.ar    1  UNL1        0.0659
     26 CL        139.0971  140.2475  166.5693 Cl      1  UNL1       -0.0822
     27 C         141.0900  140.7857  168.7462 C.3     1  UNL1        0.4194
     28 F         140.7104  141.6467  169.9143 F       1  UNL1       -0.1658
     29 F         140.5650  139.5786  169.4654 F       1  UNL1       -0.1658
     30 F         141.6150  141.9928  168.0270 F       1  UNL1       -0.1658
@<TRIPOS>BOND
     1     2     1    1
     2     2     3    1
     3     3     4   ar
     4     4     5   ar
     5     5     6   ar
     6     6    13    1
     7    13    14   ar
     8    14    15   ar
     9    15    16   ar
    10    16    17    1
    11    16    18   ar
    12    18    19   ar
    13     6     7   ar
    14     7     8    1
    15     8     9    1
    16     9    10    1
    17    10    11   am
    18    11    12    2
    19    11    20    1
    20    20    21   ar
    21    21    22   ar
    22    22    23   ar
    23    23    24   ar
    24    24    27    1
    25    27    28    1
    26    27    29    1
    27    27    30    1
    28    24    25   ar
    29    25    26    1
    30    10     2    1
    31    25    20   ar
    32     7     3   ar
    33    19    13   ar
@<TRIPOS>MOLECULE
*****
 30 33 0 0 0
SMALL
GASTEIGER

@<TRIPOS>ATOM
      1 C         143.6337  141.6484  159.3539 C.3     1  UNL1        0.0281
      2 C         143.3126  140.1888  159.4824 C.3     1  UNL1        0.1170
      3 C         143.2452  139.3250  158.2580 C.ar    1  UNL1        0.0907
      4 N         143.4467  139.6289  156.8030 N.ar    1  UNL1       -0.2267
      5 C         143.2501  138.3571  156.0323 C.ar    1  UNL1        0.1822
      6 N         142.9271  137.2672  157.0110 N.ar    1  UNL1       -0.2918
      7 C         142.9241  137.8654  158.3866 C.ar    1  UNL1        0.0596
      8 C         142.6704  137.2697  159.7396 C.3     1  UNL1        0.0669
      9 C         142.7378  138.1335  160.9641 C.3     1  UNL1        0.1003
     10 N         143.0589  139.5930  160.8355 N.am    1  UNL1       -0.2720
     11 C         143.1263  140.4569  162.0600 C.2     1  UNL1        0.2501
     12 O         143.4474  141.9164  161.9314 O.2     1  UNL1       -0.2699
     13 C         142.6550  135.8313  156.6735 C.ar    1  UNL1        0.0653
     14 C         141.6190  135.4860  155.6451 C.ar    1  UNL1        0.0199
     15 C         141.3468  134.0499  155.3075 C.ar    1  UNL1        0.0311
     16 C         142.1106  132.9594  155.9982 C.ar    1  UNL1        0.1402
     17 F         141.8384  131.5234  155.6606 F       1  UNL1       -0.2042
     18 C         143.1466  133.3047  157.0266 C.ar    1  UNL1        0.0311
     19 C         143.4188  134.7406  157.3642 C.ar    1  UNL1        0.0199
     20 C         142.8727  139.8611  163.4130 C.ar    1  UNL1        0.0641
     21 C         144.0173  139.3356  164.2276 C.ar    1  UNL1        0.0054
     22 C         143.7636  138.7398  165.5807 C.ar    1  UNL1        0.0001
     23 C         142.3653  138.6696  166.1191 C.ar    1  UNL1        0.0047
     24 C         141.2207  139.1952  165.3044 C.ar    1  UNL1        0.0821
     25 C         141.4743  139.7909  163.9514 C.ar    1  UNL1        0.0659
     26 CL        140.3297  140.3165  163.1368 Cl      1  UNL1       -0.0822
     27 C         139.8224  139.1250  165.8428 C.3     1  UNL1        0.4194
     28 F         138.4241  139.0548  166.3812 F       1  UNL1       -0.1658
     29 F         139.9882  140.4861  166.4509 F       1  UNL1       -0.1658
     30 F         139.6566  137.7638  165.2347 F       1  UNL1       -0.1658
@<TRIPOS>BOND
     1     2     1    1
     2     2     3    1
     3     3     4   ar
     4     4     5   ar
     5     5     6   ar
     6     6    13    1
     7    13    14   ar
     8    14    15   ar
     9    15    16   ar
    10    16    17    1
    11    16    18   ar
    12    18    19   ar
    13     6     7   ar
    14     7     8    1
    15     8     9    1
    16     9    10    1
    17    10    11   am
    18    11    12    2
    19    11    20    1
    20    20    21   ar
    21    21    22   ar
    22    22    23   ar
    23    23    24   ar
    24    24    27    1
    25    27    28    1
    26    27    29    1
    27    27    30    1
    28    24    25   ar
    29    25    26    1
    30    10     2    1
    31    25    20   ar
    32     7     3   ar
    33    19    13   ar
@<TRIPOS>MOLECULE
*****
 30 33 0 0 0
SMALL
GASTEIGER

@<TRIPOS>ATOM
      1 C         138.1590  139.5224  162.6905 C.3     1  UNL1        0.0281
      2 C         139.1187  140.4612  163.3595 C.3     1  UNL1        0.1170
      3 C         139.3115  140.4033  164.8460 C.ar    1  UNL1        0.0907
      4 N         138.6997  139.5339  165.9042 N.ar    1  UNL1       -0.2267
      5 C         139.2812  139.9356  167.2273 C.ar    1  UNL1        0.1822
      6 N         140.2525  141.0531  166.9867 N.ar    1  UNL1       -0.2918
      7 C         140.2712  141.3421  165.5149 C.ar    1  UNL1        0.0596
      8 C         141.0381  142.3390  164.6975 C.3     1  UNL1        0.0669
      9 C         140.8453  142.3969  163.2111 C.3     1  UNL1        0.1003
     10 N         139.8856  141.4581  162.5421 N.am    1  UNL1       -0.2720
     11 C         139.6928  141.5161  161.0556 C.2     1  UNL1        0.2501
     12 O         138.7331  140.5772  160.3866 O.2     1  UNL1       -0.2699
     13 C         141.0627  141.7578  168.0340 C.ar    1  UNL1        0.0653
     14 C         142.5194  141.4385  168.1960 C.ar    1  UNL1        0.0199
     15 C         143.3297  142.1432  169.2434 C.ar    1  UNL1        0.0311
     16 C         142.6834  143.1671  170.1286 C.ar    1  UNL1        0.1402
     17 F         143.4937  143.8718  171.1759 F       1  UNL1       -0.2042
     18 C         141.2267  143.4864  169.9665 C.ar    1  UNL1        0.0311
     19 C         140.4164  142.7818  168.9193 C.ar    1  UNL1        0.0199
     20 C         140.4597  142.5129  160.2382 C.ar    1  UNL1        0.0641
     21 C         139.8522  143.8465  159.9182 C.ar    1  UNL1        0.0054
     22 C         140.6191  144.8433  159.1007 C.ar    1  UNL1        0.0001
     23 C         141.9935  144.5065  158.6033 C.ar    1  UNL1        0.0047
     24 C         142.6011  143.1729  158.9233 C.ar    1  UNL1        0.0821
     25 C         141.8342  142.1760  159.7407 C.ar    1  UNL1        0.0659
     26 CL        142.4418  140.8424  160.0607 Cl      1  UNL1       -0.0822
     27 C         143.9755  142.8361  158.4258 C.3     1  UNL1        0.4194
     28 F         145.3500  142.4993  157.9283 F       1  UNL1       -0.1658
     29 F         143.4081  142.5161  157.0746 F       1  UNL1       -0.1658
     30 F         144.5430  143.1560  159.7770 F       1  UNL1       -0.1658
@<TRIPOS>BOND
     1     2     1    1
     2     2     3    1
     3     3     4   ar
     4     4     5   ar
     5     5     6   ar
     6     6    13    1
     7    13    14   ar
     8    14    15   ar
     9    15    16   ar
    10    16    17    1
    11    16    18   ar
    12    18    19   ar
    13     6     7   ar
    14     7     8    1
    15     8     9    1
    16     9    10    1
    17    10    11   am
    18    11    12    2
    19    11    20    1
    20    20    21   ar
    21    21    22   ar
    22    22    23   ar
    23    23    24   ar
    24    24    27    1
    25    27    28    1
    26    27    29    1
    27    27    30    1
    28    24    25   ar
    29    25    26    1
    30    10     2    1
    31    25    20   ar
    32     7     3   ar
    33    19    13   ar
@<TRIPOS>MOLECULE
*****
 30 33 0 0 0
SMALL
GASTEIGER

@<TRIPOS>ATOM
      1 C         144.3084  142.5535  159.9384 C.3     1  UNL1        0.0281
      2 C         143.8601  141.1294  159.7929 C.3     1  UNL1        0.1170
      3 C         143.7289  140.5200  158.4286 C.ar    1  UNL1        0.0907
      4 N         143.9695  141.0727  157.0551 N.ar    1  UNL1       -0.2267
      5 C         143.6699  139.9902  156.0609 C.ar    1  UNL1        0.1822
      6 N         143.2441  138.7685  156.8199 N.ar    1  UNL1       -0.2918
      7 C         143.2806  139.0959  158.2833 C.ar    1  UNL1        0.0596
      8 C         142.9634  138.2813  159.5022 C.3     1  UNL1        0.0669
      9 C         143.0947  138.8908  160.8665 C.3     1  UNL1        0.1003
     10 N         143.5430  140.3147  161.0119 N.am    1  UNL1       -0.2720
     11 C         143.6742  140.9242  162.3763 C.2     1  UNL1        0.2501
     12 O         144.1225  142.3482  162.5217 O.2     1  UNL1       -0.2699
     13 C         142.8509  137.4508  156.2207 C.ar    1  UNL1        0.0653
     14 C         143.9079  136.4864  155.7707 C.ar    1  UNL1        0.0199
     15 C         143.5147  135.1686  155.1714 C.ar    1  UNL1        0.0311
     16 C         142.0646  134.8153  155.0224 C.ar    1  UNL1        0.1402
     17 F         141.6714  133.4976  154.4232 F       1  UNL1       -0.2042
     18 C         141.0076  135.7799  155.4725 C.ar    1  UNL1        0.0311
     19 C         141.4007  137.0976  156.0717 C.ar    1  UNL1        0.0199
     20 C         143.3570  140.1096  163.5953 C.ar    1  UNL1        0.0641
     21 C         144.4643  139.4657  164.3759 C.ar    1  UNL1        0.0054
     22 C         144.1471  138.6511  165.5949 C.ar    1  UNL1        0.0001
     23 C         142.7228  138.4804  166.0332 C.ar    1  UNL1        0.0047
     24 C         141.6155  139.1244  165.2525 C.ar    1  UNL1        0.0821
     25 C         141.9326  139.9390  164.0335 C.ar    1  UNL1        0.0659
     26 CL        140.8254  140.5829  163.2529 Cl      1  UNL1       -0.0822
     27 C         140.1912  138.9537  165.6908 C.3     1  UNL1        0.4194
     28 F         138.7668  138.7830  166.1291 F       1  UNL1       -0.1658
     29 F         140.1273  137.6391  164.9713 F       1  UNL1       -0.1658
     30 F         140.2550  140.2683  166.4103 F       1  UNL1       -0.1658
@<TRIPOS>BOND
     1     2     1    1
     2     2     3    1
     3     3     4   ar
     4     4     5   ar
     5     5     6   ar
     6     6    13    1
     7    13    14   ar
     8    14    15   ar
     9    15    16   ar
    10    16    17    1
    11    16    18   ar
    12    18    19   ar
    13     6     7   ar
    14     7     8    1
    15     8     9    1
    16     9    10    1
    17    10    11   am
    18    11    12    2
    19    11    20    1
    20    20    21   ar
    21    21    22   ar
    22    22    23   ar
    23    23    24   ar
    24    24    27    1
    25    27    28    1
    26    27    29    1
    27    27    30    1
    28    24    25   ar
    29    25    26    1
    30    10     2    1
    31    25    20   ar
    32     7     3   ar
    33    19    13   ar
@<TRIPOS>MOLECULE
*****
 30 33 0 0 0
SMALL
GASTEIGER

@<TRIPOS>ATOM
      1 C         142.6122  137.4290  161.5644 C.3     1  UNL1        0.0281
      2 C         141.9209  138.7602  161.5656 C.3     1  UNL1        0.1170
      3 C         142.0394  139.6680  160.3774 C.ar    1  UNL1        0.0907
      4 N         142.7628  139.5226  159.0715 N.ar    1  UNL1       -0.2267
      5 C         142.5185  140.7640  158.2656 C.ar    1  UNL1        0.1822
      6 N         141.6441  141.6765  159.0735 N.ar    1  UNL1       -0.2918
      7 C         141.3480  140.9992  160.3787 C.ar    1  UNL1        0.0596
      8 C         140.5382  141.4225  161.5682 C.3     1  UNL1        0.0669
      9 C         140.4197  140.5147  162.7564 C.3     1  UNL1        0.1003
     10 N         141.1110  139.1836  162.7551 N.am    1  UNL1       -0.2720
     11 C         140.9925  138.2758  163.9434 C.2     1  UNL1        0.2501
     12 O         141.6839  136.9446  163.9421 O.2     1  UNL1       -0.2699
     13 C         141.1522  143.0290  158.6505 C.ar    1  UNL1        0.0653
     14 C         141.6544  144.2604  159.3444 C.ar    1  UNL1        0.0199
     15 C         141.1625  145.6129  158.9213 C.ar    1  UNL1        0.0311
     16 C         140.1686  145.7339  157.8046 C.ar    1  UNL1        0.1402
     17 F         139.6767  147.0864  157.3815 F       1  UNL1       -0.2042
     18 C         139.6664  144.5024  157.1107 C.ar    1  UNL1        0.0311
     19 C         140.1582  143.1500  157.5337 C.ar    1  UNL1        0.0199
     20 C         140.1827  138.6991  165.1329 C.ar    1  UNL1        0.0641
     21 C         138.7530  138.2635  165.2603 C.ar    1  UNL1        0.0054
     22 C         137.9432  138.6870  166.4499 C.ar    1  UNL1        0.0001
     23 C         138.5630  139.5459  167.5119 C.ar    1  UNL1        0.0047
     24 C         139.9928  139.9815  167.3845 C.ar    1  UNL1        0.0821
     25 C         140.8026  139.5581  166.1950 C.ar    1  UNL1        0.0659
     26 CL        142.2323  139.9937  166.0676 Cl      1  UNL1       -0.0822
     27 C         140.6126  140.8404  168.4465 C.3     1  UNL1        0.4194
     28 F         141.2324  141.6994  169.5086 F       1  UNL1       -0.1658
     29 F         141.0908  139.6115  169.1614 F       1  UNL1       -0.1658
     30 F         140.1344  142.0694  167.7317 F       1  UNL1       -0.1658
@<TRIPOS>BOND
     1     2     1    1
     2     2     3    1
     3     3     4   ar
     4     4     5   ar
     5     5     6   ar
     6     6    13    1
     7    13    14   ar
     8    14    15   ar
     9    15    16   ar
    10    16    17    1
    11    16    18   ar
    12    18    19   ar
    13     6     7   ar
    14     7     8    1
    15     8     9    1
    16     9    10    1
    17    10    11   am
    18    11    12    2
    19    11    20    1
    20    20    21   ar
    21    21    22   ar
    22    22    23   ar
    23    23    24   ar
    24    24    27    1
    25    27    28    1
    26    27    29    1
    27    27    30    1
    28    24    25   ar
    29    25    26    1
    30    10     2    1
    31    25    20   ar
    32     7     3   ar
    33    19    13   ar
