@<TRIPOS>MOLECULE
*****
 29 32 0 0 0
SMALL
GASTEIGER

@<TRIPOS>ATOM
      1 C         140.5332  144.5242  163.4074 C.ar    1  UNL1        0.1731
      2 C         140.2062  145.4536  162.2764 C.ar    1  UNL1        0.0401
      3 C         140.7328  145.1743  160.8999 C.ar    1  UNL1        0.0035
      4 C         141.5864  143.9656  160.6544 C.ar    1  UNL1        0.0078
      5 C         141.9134  143.0362  161.7854 C.ar    1  UNL1        0.0914
      6 C         141.3868  143.3155  163.1619 C.ar    1  UNL1        0.1833
      7 O         141.5915  142.5244  164.4199 O.3     1  UNL1       -0.4489
      8 C         142.3732  141.2588  164.6121 C.ar    1  UNL1        0.1633
      9 C         142.3221  140.7941  166.0374 C.ar    1  UNL1        0.0728
     10 C         143.0412  139.5422  166.4443 C.ar    1  UNL1        0.1316
     11 N         143.8114  138.7550  165.4261 N.ar    1  UNL1       -0.2279
     12 C         143.8625  139.2196  164.0007 C.ar    1  UNL1        0.1182
     13 C         143.1434  140.4715  163.5937 C.ar    1  UNL1        0.1084
     14 N         143.3221  140.7554  162.1317 N.am    1  UNL1       -0.2494
     15 C         144.1588  139.7674  161.3743 C.3     1  UNL1        0.1205
     16 C         142.7747  141.8968  161.3270 C.2     1  UNL1        0.2559
     17 O         143.1364  141.8992  159.8713 O.2     1  UNL1       -0.2695
     18 C         138.5419  144.6550  165.0709 C.3     1  UNL1        0.2526
     19 O         140.0066  144.8035  164.7839 O.3     1  UNL1       -0.4683
     20 N         142.9901  139.0777  167.8697 N.pl3   1  UNL1       -0.3196
     21 H         143.4167  138.2283  168.1262 H       1  UNL1        0.1481
     22 C         142.2890  139.9071  168.9042 C.3     1  UNL1        0.0705
     23 C         140.8159  139.7365  169.1301 C.3     1  UNL1        0.0220
     24 C         140.1148  140.5660  170.1647 C.3     1  UNL1        0.0309
     25 C         140.8867  141.5661  170.9733 C.3     1  UNL1        0.1106
     26 O         140.1855  142.3957  172.0079 O.3     1  UNL1       -0.3845
     27 C         142.3598  141.7368  170.7474 C.3     1  UNL1        0.0309
     28 C         143.0609  140.9073  169.7129 C.3     1  UNL1        0.0220
     29 H         139.2442  142.1623  172.0258 H       1  UNL1        0.2103
@<TRIPOS>BOND
     1    18    19    1
     2    19     1    1
     3     1     2   ar
     4     2     3   ar
     5     3     4   ar
     6     4     5   ar
     7     5     6   ar
     8     6     7    1
     9     7     8    1
    10     8     9   ar
    11     9    10   ar
    12    10    20    1
    13    22    20    1
    14    22    23    1
    15    23    24    1
    16    24    25    1
    17    25    26    1
    18    25    27    1
    19    27    28    1
    20    10    11   ar
    21    11    12   ar
    22    12    13   ar
    23    13    14    1
    24    14    15    1
    25    14    16   am
    26    16    17    2
    27     6     1   ar
    28    13     8   ar
    29    16     5    1
    30    28    22    1
    31    20    21    1
    32    26    29    1
@<TRIPOS>MOLECULE
*****
 29 32 0 0 0
SMALL
GASTEIGER

@<TRIPOS>ATOM
      1 C         140.6973  144.4568  162.5187 C.ar    1  UNL1        0.1731
      2 C         140.7339  145.1423  161.1851 C.ar    1  UNL1        0.0401
      3 C         140.1459  144.4702  159.9799 C.ar    1  UNL1        0.0035
      4 C         139.5213  143.1125  160.1083 C.ar    1  UNL1        0.0078
      5 C         139.4846  142.4270  161.4420 C.ar    1  UNL1        0.0914
      6 C         140.0726  143.0991  162.6472 C.ar    1  UNL1        0.1833
      7 O         140.1407  142.5958  164.0586 O.3     1  UNL1       -0.4489
      8 C         139.6376  141.2962  164.6135 C.ar    1  UNL1        0.1633
      9 C         139.9083  141.1870  166.0848 C.ar    1  UNL1        0.0728
     10 C         139.4837  139.9604  166.8365 C.ar    1  UNL1        0.1316
     11 N         138.7883  138.8430  166.1169 N.ar    1  UNL1       -0.2279
     12 C         138.5175  138.9522  164.6456 C.ar    1  UNL1        0.1182
     13 C         138.9422  140.1788  163.8938 C.ar    1  UNL1        0.1084
     14 N         138.5781  140.0850  162.4417 N.am    1  UNL1       -0.2494
     15 C         137.8804  138.8241  162.0258 C.3     1  UNL1        0.1205
     16 C         138.8195  141.0856  161.3506 C.2     1  UNL1        0.2559
     17 O         138.3313  140.6929  159.9877 O.2     1  UNL1       -0.2695
     18 C         142.7725  145.1560  163.9167 C.3     1  UNL1        0.2526
     19 O         141.2852  145.1289  163.7240 O.3     1  UNL1       -0.4683
     20 N         139.7544  139.8513  168.3078 N.pl3   1  UNL1       -0.3196
     21 H         139.3211  139.1430  168.8368 H       1  UNL1        0.1481
     22 C         140.6854  140.8211  168.9731 C.3     1  UNL1        0.0705
     23 C         140.1519  142.1017  169.5436 C.3     1  UNL1        0.0220
     24 C         141.0830  143.0716  170.2089 C.3     1  UNL1        0.0309
     25 C         142.5473  142.7608  170.3036 C.3     1  UNL1        0.1106
     26 O         143.4783  143.7308  170.9690 O.3     1  UNL1       -0.3845
     27 C         143.0807  141.4802  169.7331 C.3     1  UNL1        0.0309
     28 C         142.1498  140.5104  169.0678 C.3     1  UNL1        0.0220
     29 H         142.9757  144.5000  171.2799 H       1  UNL1        0.2103
@<TRIPOS>BOND
     1    18    19    1
     2    19     1    1
     3     1     2   ar
     4     2     3   ar
     5     3     4   ar
     6     4     5   ar
     7     5     6   ar
     8     6     7    1
     9     7     8    1
    10     8     9   ar
    11     9    10   ar
    12    10    20    1
    13    22    20    1
    14    22    23    1
    15    23    24    1
    16    24    25    1
    17    25    26    1
    18    25    27    1
    19    27    28    1
    20    10    11   ar
    21    11    12   ar
    22    12    13   ar
    23    13    14    1
    24    14    15    1
    25    14    16   am
    26    16    17    2
    27     6     1   ar
    28    13     8   ar
    29    16     5    1
    30    28    22    1
    31    20    21    1
    32    26    29    1
@<TRIPOS>MOLECULE
*****
 29 32 0 0 0
SMALL
GASTEIGER

@<TRIPOS>ATOM
      1 C         143.5442  141.6354  162.3303 C.ar    1  UNL1        0.1731
      2 C         144.0758  141.8231  160.9403 C.ar    1  UNL1        0.0401
      3 C         143.3333  141.2501  159.7696 C.ar    1  UNL1        0.0035
      4 C         142.0593  140.4894  159.9889 C.ar    1  UNL1        0.0078
      5 C         141.5277  140.3017  161.3789 C.ar    1  UNL1        0.0914
      6 C         142.2702  140.8747  162.5496 C.ar    1  UNL1        0.1833
      7 O         141.9180  140.8038  164.0059 O.3     1  UNL1       -0.4489
      8 C         140.7364  140.1425  164.6514 C.ar    1  UNL1        0.1633
      9 C         140.7626  140.3074  166.1420 C.ar    1  UNL1        0.0728
     10 C         139.6675  139.7185  166.9811 C.ar    1  UNL1        0.1316
     11 N         138.5463  138.9647  166.3295 N.ar    1  UNL1       -0.2279
     12 C         138.5201  138.7998  164.8388 C.ar    1  UNL1        0.1182
     13 C         139.6152  139.3886  163.9997 C.ar    1  UNL1        0.1084
     14 N         139.3985  139.1100  162.5418 N.am    1  UNL1       -0.2494
     15 C         138.1681  138.3206  162.2059 C.3     1  UNL1        0.1205
     16 C         140.2497  139.5164  161.3755 C.2     1  UNL1        0.2559
     17 O         139.7579  139.0796  160.0274 O.2     1  UNL1       -0.2695
     18 C         145.6606  141.7080  163.8355 C.3     1  UNL1        0.2526
     19 O         144.2866  142.2084  163.5009 O.3     1  UNL1       -0.4683
     20 N         139.6937  139.8835  168.4717 N.pl3   1  UNL1       -0.3196
     21 H         139.0871  139.3522  169.0365 H       1  UNL1        0.1481
     22 C         140.6441  140.8579  169.1019 C.3     1  UNL1        0.0705
     23 C         141.9986  140.3988  169.5541 C.3     1  UNL1        0.0220
     24 C         142.9491  141.3733  170.1843 C.3     1  UNL1        0.0309
     25 C         142.5450  142.8068  170.3622 C.3     1  UNL1        0.1106
     26 O         143.4955  143.7813  170.9924 O.3     1  UNL1       -0.3845
     27 C         141.1904  143.2659  169.9100 C.3     1  UNL1        0.0309
     28 C         140.2401  142.2915  169.2798 C.3     1  UNL1        0.0220
     29 H         144.3193  143.3251  171.2248 H       1  UNL1        0.2103
@<TRIPOS>BOND
     1    18    19    1
     2    19     1    1
     3     1     2   ar
     4     2     3   ar
     5     3     4   ar
     6     4     5   ar
     7     5     6   ar
     8     6     7    1
     9     7     8    1
    10     8     9   ar
    11     9    10   ar
    12    10    20    1
    13    22    20    1
    14    22    23    1
    15    23    24    1
    16    24    25    1
    17    25    26    1
    18    25    27    1
    19    27    28    1
    20    10    11   ar
    21    11    12   ar
    22    12    13   ar
    23    13    14    1
    24    14    15    1
    25    14    16   am
    26    16    17    2
    27     6     1   ar
    28    13     8   ar
    29    16     5    1
    30    28    22    1
    31    20    21    1
    32    26    29    1
@<TRIPOS>MOLECULE
*****
 29 32 0 0 0
SMALL
GASTEIGER

@<TRIPOS>ATOM
      1 C         143.7848  141.2033  160.0181 C.ar    1  UNL1        0.1731
      2 C         144.3150  141.3837  158.6266 C.ar    1  UNL1        0.0401
      3 C         143.9332  142.5959  157.8298 C.ar    1  UNL1        0.0035
      4 C         143.0213  143.6277  158.4245 C.ar    1  UNL1        0.0078
      5 C         142.4911  143.4473  159.8160 C.ar    1  UNL1        0.0914
      6 C         142.8729  142.2351  160.6128 C.ar    1  UNL1        0.1833
      7 O         142.4599  141.8637  162.0062 O.3     1  UNL1       -0.4489
      8 C         141.5632  142.6126  162.9470 C.ar    1  UNL1        0.1633
      9 C         141.4096  141.8881  164.2513 C.ar    1  UNL1        0.0728
     10 C         140.5508  142.4689  165.3353 C.ar    1  UNL1        0.1316
     11 N         139.8456  143.7742  165.1150 N.ar    1  UNL1       -0.2279
     12 C         139.9992  144.4989  163.8106 C.ar    1  UNL1        0.1182
     13 C         140.8580  143.9181  162.7266 C.ar    1  UNL1        0.1084
     14 N         140.8753  144.7970  161.5112 N.am    1  UNL1       -0.2494
     15 C         140.0577  146.0512  161.6032 C.3     1  UNL1        0.1205
     16 C         141.6021  144.5874  160.2159 C.2     1  UNL1        0.2559
     17 O         141.4152  145.6598  159.1839 O.2     1  UNL1       -0.2695
     18 C         143.5791  138.6538  160.4737 C.3     1  UNL1        0.2526
     19 O         144.1666  139.9911  160.8149 O.3     1  UNL1       -0.4683
     20 N         140.3972  141.7442  166.6396 N.pl3   1  UNL1       -0.3196
     21 H         139.8284  140.9424  166.6933 H       1  UNL1        0.1481
     22 C         141.1103  142.2409  167.8622 C.3     1  UNL1        0.0705
     23 C         140.3993  143.1360  168.8334 C.3     1  UNL1        0.0220
     24 C         141.1125  143.6328  170.0559 C.3     1  UNL1        0.0309
     25 C         142.5366  143.2344  170.3073 C.3     1  UNL1        0.1106
     26 O         143.2497  143.7312  171.5299 O.3     1  UNL1       -0.3845
     27 C         143.2476  142.3392  169.3361 C.3     1  UNL1        0.0309
     28 C         142.5345  141.8425  168.1136 C.3     1  UNL1        0.0220
     29 H         142.6518  144.2936  172.0468 H       1  UNL1        0.2103
@<TRIPOS>BOND
     1    18    19    1
     2    19     1    1
     3     1     2   ar
     4     2     3   ar
     5     3     4   ar
     6     4     5   ar
     7     5     6   ar
     8     6     7    1
     9     7     8    1
    10     8     9   ar
    11     9    10   ar
    12    10    20    1
    13    22    20    1
    14    22    23    1
    15    23    24    1
    16    24    25    1
    17    25    26    1
    18    25    27    1
    19    27    28    1
    20    10    11   ar
    21    11    12   ar
    22    12    13   ar
    23    13    14    1
    24    14    15    1
    25    14    16   am
    26    16    17    2
    27     6     1   ar
    28    13     8   ar
    29    16     5    1
    30    28    22    1
    31    20    21    1
    32    26    29    1
@<TRIPOS>MOLECULE
*****
 29 32 0 0 0
SMALL
GASTEIGER

@<TRIPOS>ATOM
      1 C         138.6383  142.3771  163.1999 C.ar    1  UNL1        0.1731
      2 C         137.9482  142.9273  161.9872 C.ar    1  UNL1        0.0401
      3 C         138.5018  142.6535  160.6202 C.ar    1  UNL1        0.0035
      4 C         139.7456  141.8294  160.4660 C.ar    1  UNL1        0.0078
      5 C         140.4357  141.2792  161.6788 C.ar    1  UNL1        0.0914
      6 C         139.8821  141.5530  163.0457 C.ar    1  UNL1        0.1833
      7 O         140.4100  141.1033  164.3758 O.3     1  UNL1       -0.4489
      8 C         141.6217  140.2687  164.6676 C.ar    1  UNL1        0.1633
      9 C         141.7934  140.0479  166.1413 C.ar    1  UNL1        0.0728
     10 C         142.9482  139.2362  166.6486 C.ar    1  UNL1        0.1316
     11 N         143.9314  138.6452  165.6822 N.ar    1  UNL1       -0.2279
     12 C         143.7599  138.8660  164.2085 C.ar    1  UNL1        0.1182
     13 C         142.6050  139.6777  163.7012 C.ar    1  UNL1        0.1084
     14 N         142.6194  139.7753  162.2044 N.am    1  UNL1       -0.2494
     15 C         143.7484  139.0665  161.5168 C.3     1  UNL1        0.1205
     16 C         141.6539  140.4880  161.3044 C.2     1  UNL1        0.2559
     17 O         141.9452  140.3977  159.8357 O.2     1  UNL1       -0.2695
     18 C         137.9330  144.0644  165.0453 C.3     1  UNL1        0.2526
     19 O         138.0847  142.6509  164.5669 O.3     1  UNL1       -0.4683
     20 N         143.1197  139.0155  168.1223 N.pl3   1  UNL1       -0.3196
     21 H         143.6978  138.2877  168.4470 H       1  UNL1        0.1481
     22 C         142.4105  139.9035  169.1013 C.3     1  UNL1        0.0705
     23 C         141.1243  139.4526  169.7276 C.3     1  UNL1        0.0220
     24 C         140.4151  140.3407  170.7066 C.3     1  UNL1        0.0309
     25 C         140.9921  141.6796  171.0592 C.3     1  UNL1        0.1106
     26 O         140.2828  142.5676  172.0382 O.3     1  UNL1       -0.3845
     27 C         142.2784  142.1304  170.4328 C.3     1  UNL1        0.0309
     28 C         142.9875  141.2424  169.4539 C.3     1  UNL1        0.0220
     29 H         139.4741  142.1290  172.3456 H       1  UNL1        0.2103
@<TRIPOS>BOND
     1    18    19    1
     2    19     1    1
     3     1     2   ar
     4     2     3   ar
     5     3     4   ar
     6     4     5   ar
     7     5     6   ar
     8     6     7    1
     9     7     8    1
    10     8     9   ar
    11     9    10   ar
    12    10    20    1
    13    22    20    1
    14    22    23    1
    15    23    24    1
    16    24    25    1
    17    25    26    1
    18    25    27    1
    19    27    28    1
    20    10    11   ar
    21    11    12   ar
    22    12    13   ar
    23    13    14    1
    24    14    15    1
    25    14    16   am
    26    16    17    2
    27     6     1   ar
    28    13     8   ar
    29    16     5    1
    30    28    22    1
    31    20    21    1
    32    26    29    1
@<TRIPOS>MOLECULE
*****
 29 32 0 0 0
SMALL
GASTEIGER

@<TRIPOS>ATOM
      1 C         140.1462  144.5952  161.8364 C.ar    1  UNL1        0.1731
      2 C         140.3217  145.4470  160.6143 C.ar    1  UNL1        0.0401
      3 C         141.3186  145.0556  159.5641 C.ar    1  UNL1        0.0035
      4 C         142.1400  143.8124  159.7361 C.ar    1  UNL1        0.0078
      5 C         141.9645  142.9606  160.9582 C.ar    1  UNL1        0.0914
      6 C         140.9676  143.3520  162.0084 C.ar    1  UNL1        0.1833
      7 O         140.6376  142.6503  163.2924 O.3     1  UNL1       -0.4489
      8 C         141.2230  141.3839  163.8435 C.ar    1  UNL1        0.1633
      9 C         140.6094  141.0259  165.1645 C.ar    1  UNL1        0.0728
     10 C         141.0558  139.7905  165.8887 C.ar    1  UNL1        0.1316
     11 N         142.1157  138.9130  165.2917 N.ar    1  UNL1       -0.2279
     12 C         142.7294  139.2710  163.9706 C.ar    1  UNL1        0.1182
     13 C         142.2830  140.5065  163.2464 C.ar    1  UNL1        0.1084
     14 N         143.0194  140.6786  161.9510 N.am    1  UNL1       -0.2494
     15 C         144.0314  139.6184  161.6318 C.3     1  UNL1        0.1205
     16 C         142.8777  141.7708  160.9327 C.2     1  UNL1        0.2559
     17 O         143.7666  141.6583  159.7297 O.2     1  UNL1       -0.2695
     18 C         137.7919  144.3487  162.9071 C.3     1  UNL1        0.2526
     19 O         139.1492  144.9867  162.8866 O.3     1  UNL1       -0.4683
     20 N         140.4421  139.4326  167.2097 N.pl3   1  UNL1       -0.3196
     21 H         139.7555  138.7287  167.2590 H       1  UNL1        0.1481
     22 C         140.8744  140.1470  168.4557 C.3     1  UNL1        0.0705
     23 C         140.0081  141.2215  169.0431 C.3     1  UNL1        0.0220
     24 C         140.4405  141.9360  170.2891 C.3     1  UNL1        0.0309
     25 C         141.7391  141.5759  170.9478 C.3     1  UNL1        0.1106
     26 O         142.1714  142.2905  172.1939 O.3     1  UNL1       -0.3845
     27 C         142.6054  140.5014  170.3605 C.3     1  UNL1        0.0309
     28 C         142.1731  139.7870  169.1145 C.3     1  UNL1        0.0220
     29 H         141.5025  142.9494  172.4373 H       1  UNL1        0.2103
@<TRIPOS>BOND
     1    18    19    1
     2    19     1    1
     3     1     2   ar
     4     2     3   ar
     5     3     4   ar
     6     4     5   ar
     7     5     6   ar
     8     6     7    1
     9     7     8    1
    10     8     9   ar
    11     9    10   ar
    12    10    20    1
    13    22    20    1
    14    22    23    1
    15    23    24    1
    16    24    25    1
    17    25    26    1
    18    25    27    1
    19    27    28    1
    20    10    11   ar
    21    11    12   ar
    22    12    13   ar
    23    13    14    1
    24    14    15    1
    25    14    16   am
    26    16    17    2
    27     6     1   ar
    28    13     8   ar
    29    16     5    1
    30    28    22    1
    31    20    21    1
    32    26    29    1
@<TRIPOS>MOLECULE
*****
 29 32 0 0 0
SMALL
GASTEIGER

@<TRIPOS>ATOM
      1 C         138.8903  142.5155  161.1785 C.ar    1  UNL1        0.1731
      2 C         138.7559  142.8185  159.7157 C.ar    1  UNL1        0.0401
      3 C         139.6107  142.0944  158.7181 C.ar    1  UNL1        0.0035
      4 C         140.5998  141.0673  159.1835 C.ar    1  UNL1        0.0078
      5 C         140.7342  140.7643  160.6464 C.ar    1  UNL1        0.0914
      6 C         139.8795  141.4884  161.6439 C.ar    1  UNL1        0.1833
      7 O         139.8537  141.3394  163.1363 O.3     1  UNL1       -0.4489
      8 C         140.6763  140.4297  163.9998 C.ar    1  UNL1        0.1633
      9 C         140.3356  140.5953  165.4511 C.ar    1  UNL1        0.0728
     10 C         141.0463  139.7754  166.4867 C.ar    1  UNL1        0.1316
     11 N         142.0979  138.7899  166.0711 N.ar    1  UNL1       -0.2279
     12 C         142.4387  138.6242  164.6197 C.ar    1  UNL1        0.1182
     13 C         141.7279  139.4441  163.5840 C.ar    1  UNL1        0.1084
     14 N         142.2166  139.1249  162.2022 N.am    1  UNL1       -0.2494
     15 C         143.2894  138.0800  162.1165 C.3     1  UNL1        0.1205
     16 C         141.7744  139.7125  160.8949 C.2     1  UNL1        0.2559
     17 O         142.4634  139.1774  159.6747 O.2     1  UNL1       -0.2695
     18 C         138.4989  144.5438  162.7542 C.3     1  UNL1        0.2526
     19 O         138.0355  143.2396  162.1761 O.3     1  UNL1       -0.4683
     20 N         140.7054  139.9412  167.9381 N.pl3   1  UNL1       -0.3196
     21 H         140.0334  139.3554  168.3558 H       1  UNL1        0.1481
     22 C         141.3884  140.9992  168.7528 C.3     1  UNL1        0.0705
     23 C         140.6357  142.2284  169.1683 C.3     1  UNL1        0.0220
     24 C         141.3188  143.2865  169.9831 C.3     1  UNL1        0.0309
     25 C         142.7544  143.1154  170.3825 C.3     1  UNL1        0.1106
     26 O         143.4374  144.1736  171.1973 O.3     1  UNL1       -0.3845
     27 C         143.5071  141.8862  169.9670 C.3     1  UNL1        0.0309
     28 C         142.8242  140.8282  169.1522 C.3     1  UNL1        0.0220
     29 H         142.8143  144.8945  171.3786 H       1  UNL1        0.2103
@<TRIPOS>BOND
     1    18    19    1
     2    19     1    1
     3     1     2   ar
     4     2     3   ar
     5     3     4   ar
     6     4     5   ar
     7     5     6   ar
     8     6     7    1
     9     7     8    1
    10     8     9   ar
    11     9    10   ar
    12    10    20    1
    13    22    20    1
    14    22    23    1
    15    23    24    1
    16    24    25    1
    17    25    26    1
    18    25    27    1
    19    27    28    1
    20    10    11   ar
    21    11    12   ar
    22    12    13   ar
    23    13    14    1
    24    14    15    1
    25    14    16   am
    26    16    17    2
    27     6     1   ar
    28    13     8   ar
    29    16     5    1
    30    28    22    1
    31    20    21    1
    32    26    29    1
@<TRIPOS>MOLECULE
*****
 29 32 0 0 0
SMALL
GASTEIGER

@<TRIPOS>ATOM
      1 C         142.9447  143.4778  159.3451 C.ar    1  UNL1        0.1731
      2 C         142.6984  144.2655  158.0926 C.ar    1  UNL1        0.0401
      3 C         141.5966  145.2825  158.0507 C.ar    1  UNL1        0.0035
      4 C         140.7411  145.5118  159.2612 C.ar    1  UNL1        0.0078
      5 C         140.9873  144.7241  160.5137 C.ar    1  UNL1        0.0914
      6 C         142.0891  143.7071  160.5557 C.ar    1  UNL1        0.1833
      7 O         142.5010  142.8209  161.6937 O.3     1  UNL1       -0.4489
      8 C         141.9130  142.7329  163.0708 C.ar    1  UNL1        0.1633
      9 C         142.6251  141.7110  163.9066 C.ar    1  UNL1        0.0728
     10 C         142.1920  141.4655  165.3216 C.ar    1  UNL1        0.1316
     11 N         141.0468  142.2418  165.9007 N.ar    1  UNL1       -0.2279
     12 C         140.3345  143.2638  165.0650 C.ar    1  UNL1        0.1182
     13 C         140.7677  143.5093  163.6500 C.ar    1  UNL1        0.1084
     14 N         139.9276  144.5655  162.9952 N.am    1  UNL1       -0.2494
     15 C         138.8469  145.1596  163.8490 C.3     1  UNL1        0.1205
     16 C         140.0254  145.1061  161.5994 C.2     1  UNL1        0.2559
     17 O         139.0295  146.1693  161.2421 O.2     1  UNL1       -0.2695
     18 C         144.6583  141.9648  158.1106 C.3     1  UNL1        0.2526
     19 O         144.0465  142.4608  159.3871 O.3     1  UNL1       -0.4683
     20 N         142.9043  140.4436  166.1572 N.pl3   1  UNL1       -0.3196
     21 H         143.4460  139.7447  165.7244 H       1  UNL1        0.1481
     22 C         142.7912  140.4864  167.6523 C.3     1  UNL1        0.0705
     23 C         142.3078  139.2809  168.4027 C.3     1  UNL1        0.0220
     24 C         142.1947  139.3238  169.8979 C.3     1  UNL1        0.0309
     25 C         142.5650  140.5721  170.6425 C.3     1  UNL1        0.1106
     26 O         142.4519  140.6149  172.1377 O.3     1  UNL1       -0.3845
     27 C         143.0484  141.7776  169.8921 C.3     1  UNL1        0.0309
     28 C         143.1614  141.7348  168.3970 C.3     1  UNL1        0.0220
     29 H         142.1270  139.7604  172.4620 H       1  UNL1        0.2103
@<TRIPOS>BOND
     1    18    19    1
     2    19     1    1
     3     1     2   ar
     4     2     3   ar
     5     3     4   ar
     6     4     5   ar
     7     5     6   ar
     8     6     7    1
     9     7     8    1
    10     8     9   ar
    11     9    10   ar
    12    10    20    1
    13    22    20    1
    14    22    23    1
    15    23    24    1
    16    24    25    1
    17    25    26    1
    18    25    27    1
    19    27    28    1
    20    10    11   ar
    21    11    12   ar
    22    12    13   ar
    23    13    14    1
    24    14    15    1
    25    14    16   am
    26    16    17    2
    27     6     1   ar
    28    13     8   ar
    29    16     5    1
    30    28    22    1
    31    20    21    1
    32    26    29    1
@<TRIPOS>MOLECULE
*****
 29 32 0 0 0
SMALL
GASTEIGER

@<TRIPOS>ATOM
      1 C         138.8358  144.2923  163.1943 C.ar    1  UNL1        0.1731
      2 C         138.9501  144.7492  164.6184 C.ar    1  UNL1        0.0401
      3 C         139.2320  143.7543  165.7050 C.ar    1  UNL1        0.0035
      4 C         139.3995  142.3024  165.3675 C.ar    1  UNL1        0.0078
      5 C         139.2852  141.8455  163.9434 C.ar    1  UNL1        0.0914
      6 C         139.0033  142.8404  162.8568 C.ar    1  UNL1        0.1833
      7 O         138.8516  142.5990  161.3841 O.3     1  UNL1       -0.4489
      8 C         138.9443  141.3032  160.6343 C.ar    1  UNL1        0.1633
      9 C         138.7287  141.5044  159.1636 C.ar    1  UNL1        0.0728
     10 C         138.7804  140.3310  158.2305 C.ar    1  UNL1        0.1316
     11 N         139.0477  138.9565  158.7682 N.ar    1  UNL1       -0.2279
     12 C         139.2633  138.7553  160.2390 C.ar    1  UNL1        0.1182
     13 C         139.2116  139.9286  161.1720 C.ar    1  UNL1        0.1084
     14 N         139.4522  139.5104  162.5923 N.am    1  UNL1       -0.2494
     15 C         139.6917  138.0454  162.8077 C.3     1  UNL1        0.1205
     16 C         139.4850  140.3635  163.8256 C.2     1  UNL1        0.2559
     17 O         139.7529  139.6388  165.1113 O.2     1  UNL1       -0.2695
     18 C         139.6083  146.2741  161.7025 C.3     1  UNL1        0.2526
     19 O         138.5539  145.2872  162.1077 O.3     1  UNL1       -0.4683
     20 N         138.5648  140.5323  156.7598 N.pl3   1  UNL1       -0.3196
     21 H         138.5992  139.7623  156.1474 H       1  UNL1        0.1481
     22 C         138.2968  141.9068  156.2223 C.3     1  UNL1        0.0705
     23 C         136.8943  142.3212  155.8885 C.3     1  UNL1        0.0220
     24 C         136.6263  143.6957  155.3509 C.3     1  UNL1        0.0309
     25 C         137.7607  144.6557  155.1471 C.3     1  UNL1        0.1106
     26 O         137.4927  146.0302  154.6095 O.3     1  UNL1       -0.3845
     27 C         139.1632  144.2412  155.4809 C.3     1  UNL1        0.0309
     28 C         139.4312  142.8668  156.0184 C.3     1  UNL1        0.0220
     29 H         136.5419  146.1344  154.4479 H       1  UNL1        0.2103
@<TRIPOS>BOND
     1    18    19    1
     2    19     1    1
     3     1     2   ar
     4     2     3   ar
     5     3     4   ar
     6     4     5   ar
     7     5     6   ar
     8     6     7    1
     9     7     8    1
    10     8     9   ar
    11     9    10   ar
    12    10    20    1
    13    22    20    1
    14    22    23    1
    15    23    24    1
    16    24    25    1
    17    25    26    1
    18    25    27    1
    19    27    28    1
    20    10    11   ar
    21    11    12   ar
    22    12    13   ar
    23    13    14    1
    24    14    15    1
    25    14    16   am
    26    16    17    2
    27     6     1   ar
    28    13     8   ar
    29    16     5    1
    30    28    22    1
    31    20    21    1
    32    26    29    1
