@<TRIPOS>MOLECULE
*****
 29 32 0 0 0
SMALL
GASTEIGER

@<TRIPOS>ATOM
      1 C         144.1930  139.4160  162.9831 C.ar    1  UNL1        0.1491
      2 N         144.3930  139.5997  161.5079 N.ar    1  UNL1       -0.1977
      3 C         143.4341  138.9761  160.5377 C.ar    1  UNL1        0.2149
      4 N         143.6341  139.1599  159.0624 N.pl3   1  UNL1       -0.3274
      5 N         142.2751  138.1686  161.0425 N.ar    1  UNL1       -0.2124
      6 C         142.0751  137.9848  162.5177 C.ar    1  UNL1        0.1041
      7 C         141.0326  137.2478  163.3051 C.ar    1  UNL1        0.0394
      8 C         141.3472  137.4160  164.7620 C.ar    1  UNL1        0.0779
      9 N         142.5842  138.2570  164.8751 N.ar    1  UNL1       -0.3169
     10 C         143.0341  138.6085  163.4880 C.ar    1  UNL1        0.1101
     11 H         144.3947  139.6899  158.7310 H       1  UNL1        0.1452
     12 H         143.0047  138.7506  158.4255 H       1  UNL1        0.1452
     13 N         145.1519  140.0396  163.9534 N.pl3   1  UNL1       -0.3119
     14 H         145.3998  139.5609  164.7772 H       1  UNL1        0.1486
     15 C         145.7333  141.3927  163.6686 C.3     1  UNL1        0.1383
     16 C         142.2368  145.3468  163.8152 C.3     1  UNL1        0.0754
     17 C         143.2303  144.3386  163.3185 C.ar    1  UNL1        0.1546
     18 C         143.9411  143.3156  164.1542 C.ar    1  UNL1        0.0553
     19 C         144.8374  142.5211  163.2512 C.ar    1  UNL1        0.1201
     20 N         144.6806  143.0531  161.8575 N.ar    1  UNL1       -0.0800
     21 O         143.6873  144.1764  161.8992 O.2     1  UNL1       -0.3580
     22 C         143.2537  138.6732  166.1512 C.3     1  UNL1        0.1520
     23 C         142.7334  139.8502  166.9219 C.ar    1  UNL1        0.0820
     24 C         142.0256  140.9620  166.2058 C.ar    1  UNL1        0.0190
     25 C         141.5052  142.1390  166.9764 C.ar    1  UNL1        0.0325
     26 C         141.6927  142.2041  168.4632 C.ar    1  UNL1        0.1592
     27 F         141.1723  143.3811  169.2339 F       1  UNL1       -0.2025
     28 C         142.4005  141.0923  169.1793 C.ar    1  UNL1        0.1280
     29 N         142.9208  139.9154  168.4087 N.ar    1  UNL1       -0.2439
@<TRIPOS>BOND
     1    16    17    1
     2    17    18   ar
     3    18    19   ar
     4    19    15    1
     5    15    13    1
     6    13     1    1
     7     1     2   ar
     8     2     3   ar
     9     3     4    1
    10     3     5   ar
    11     5     6   ar
    12     6     7   ar
    13     7     8   ar
    14     8     9   ar
    15     9    22    1
    16    22    23    1
    17    23    24   ar
    18    24    25   ar
    19    25    26   ar
    20    26    27    1
    21    26    28   ar
    22    28    29   ar
    23     9    10   ar
    24    19    20   ar
    25    20    21   ar
    26    21    17   ar
    27    10     1   ar
    28    10     6   ar
    29    29    23   ar
    30    13    14    1
    31     4    11    1
    32     4    12    1
@<TRIPOS>MOLECULE
*****
 29 32 0 0 0
SMALL
GASTEIGER

@<TRIPOS>ATOM
      1 C         139.2521  139.5053  165.4222 C.ar    1  UNL1        0.1491
      2 N         138.1876  138.5443  165.8619 N.ar    1  UNL1       -0.1977
      3 C         137.7965  138.4685  167.3079 C.ar    1  UNL1        0.2149
      4 N         136.7319  137.5074  167.7476 N.pl3   1  UNL1       -0.3274
      5 N         138.4698  139.3538  168.3144 N.ar    1  UNL1       -0.2124
      6 C         139.5342  140.3148  167.8747 C.ar    1  UNL1        0.1041
      7 C         140.3675  141.3052  168.6329 C.ar    1  UNL1        0.0394
      8 C         141.2737  141.9930  167.6553 C.ar    1  UNL1        0.0779
      9 N         141.0005  141.4278  166.2930 N.ar    1  UNL1       -0.3169
     10 C         139.9254  140.3906  166.4286 C.ar    1  UNL1        0.1101
     11 H         136.2900  136.9264  167.0870 H       1  UNL1        0.1452
     12 H         136.4752  137.4577  168.6967 H       1  UNL1        0.1452
     13 N         139.6432  139.5810  163.9760 N.pl3   1  UNL1       -0.3119
     14 H         140.5919  139.5245  163.7191 H       1  UNL1        0.1486
     15 C         138.5890  139.7430  162.9214 C.3     1  UNL1        0.1383
     16 C         139.7272  143.6392  159.5442 C.3     1  UNL1        0.0754
     17 C         139.0306  142.8065  160.5794 C.ar    1  UNL1        0.1546
     18 C         139.5090  141.4926  161.1221 C.ar    1  UNL1        0.0553
     19 C         138.5075  141.0157  162.1317 C.ar    1  UNL1        0.1201
     20 N         137.4100  142.0349  162.2130 N.ar    1  UNL1       -0.0800
     21 O         137.7333  143.1417  161.2536 O.2     1  UNL1       -0.3580
     22 C         141.6826  141.8293  165.0188 C.3     1  UNL1        0.1520
     23 C         141.2151  143.0403  164.2672 C.ar    1  UNL1        0.0820
     24 C         139.8706  143.6349  164.5648 C.ar    1  UNL1        0.0190
     25 C         139.4031  144.8460  163.8133 C.ar    1  UNL1        0.0325
     26 C         140.2802  145.4623  162.7640 C.ar    1  UNL1        0.1592
     27 F         139.8128  146.6733  162.0124 F       1  UNL1       -0.2025
     28 C         141.6247  144.8676  162.4664 C.ar    1  UNL1        0.1280
     29 N         142.0922  143.6566  163.2180 N.ar    1  UNL1       -0.2439
@<TRIPOS>BOND
     1    16    17    1
     2    17    18   ar
     3    18    19   ar
     4    19    15    1
     5    15    13    1
     6    13     1    1
     7     1     2   ar
     8     2     3   ar
     9     3     4    1
    10     3     5   ar
    11     5     6   ar
    12     6     7   ar
    13     7     8   ar
    14     8     9   ar
    15     9    22    1
    16    22    23    1
    17    23    24   ar
    18    24    25   ar
    19    25    26   ar
    20    26    27    1
    21    26    28   ar
    22    28    29   ar
    23     9    10   ar
    24    19    20   ar
    25    20    21   ar
    26    21    17   ar
    27    10     1   ar
    28    10     6   ar
    29    29    23   ar
    30    13    14    1
    31     4    11    1
    32     4    12    1
@<TRIPOS>MOLECULE
*****
 29 32 0 0 0
SMALL
GASTEIGER

@<TRIPOS>ATOM
      1 C         140.2574  142.1690  163.5535 C.ar    1  UNL1        0.1491
      2 N         138.9086  142.6847  163.1476 N.ar    1  UNL1       -0.1977
      3 C         138.6991  144.1555  162.9408 C.ar    1  UNL1        0.2149
      4 N         137.3503  144.6712  162.5349 N.pl3   1  UNL1       -0.3274
      5 N         139.8385  145.1107  163.1400 N.ar    1  UNL1       -0.2124
      6 C         141.1873  144.5949  163.5459 C.ar    1  UNL1        0.1041
      7 C         142.4887  145.2907  163.8143 C.ar    1  UNL1        0.0394
      8 C         143.5025  144.2499  164.1869 C.ar    1  UNL1        0.0779
      9 N         142.8276  142.9108  164.1488 N.ar    1  UNL1       -0.3169
     10 C         141.3967  143.1241  163.7527 C.ar    1  UNL1        0.1101
     11 H         136.6025  144.0444  162.4041 H       1  UNL1        0.1452
     12 H         137.2128  145.6366  162.3991 H       1  UNL1        0.1452
     13 N         140.4668  140.6981  163.7603 N.pl3   1  UNL1       -0.3119
     14 H         141.3619  140.3065  163.6389 H       1  UNL1        0.1486
     15 C         139.3125  139.8240  164.1520 C.3     1  UNL1        0.1383
     16 C         139.2562  140.3229  169.4083 C.3     1  UNL1        0.0754
     17 C         138.9629  139.8433  168.0176 C.ar    1  UNL1        0.1546
     18 C         139.5626  140.3844  166.7536 C.ar    1  UNL1        0.0553
     19 C         138.9889  139.6141  165.6016 C.ar    1  UNL1        0.1201
     20 N         138.0345  138.5969  166.1535 N.ar    1  UNL1       -0.0800
     21 O         138.0185  138.7386  167.6467 O.2     1  UNL1       -0.3580
     22 C         143.4708  141.5904  164.4535 C.3     1  UNL1        0.1520
     23 C         143.2271  140.9247  165.7754 C.ar    1  UNL1        0.0820
     24 C         143.2363  139.4280  165.8743 C.ar    1  UNL1        0.0190
     25 C         142.9927  138.7622  167.1962 C.ar    1  UNL1        0.0325
     26 C         142.7398  139.5932  168.4191 C.ar    1  UNL1        0.1592
     27 F         142.4962  138.9275  169.7411 F       1  UNL1       -0.2025
     28 C         142.7307  141.0899  168.3201 C.ar    1  UNL1        0.1280
     29 N         142.9743  141.7556  166.9983 N.ar    1  UNL1       -0.2439
@<TRIPOS>BOND
     1    16    17    1
     2    17    18   ar
     3    18    19   ar
     4    19    15    1
     5    15    13    1
     6    13     1    1
     7     1     2   ar
     8     2     3   ar
     9     3     4    1
    10     3     5   ar
    11     5     6   ar
    12     6     7   ar
    13     7     8   ar
    14     8     9   ar
    15     9    22    1
    16    22    23    1
    17    23    24   ar
    18    24    25   ar
    19    25    26   ar
    20    26    27    1
    21    26    28   ar
    22    28    29   ar
    23     9    10   ar
    24    19    20   ar
    25    20    21   ar
    26    21    17   ar
    27    10     1   ar
    28    10     6   ar
    29    29    23   ar
    30    13    14    1
    31     4    11    1
    32     4    12    1
@<TRIPOS>MOLECULE
*****
 29 32 0 0 0
SMALL
GASTEIGER

@<TRIPOS>ATOM
      1 C         137.8012  140.9328  163.2455 C.ar    1  UNL1        0.1491
      2 N         137.4709  141.0818  161.7899 N.ar    1  UNL1       -0.1977
      3 C         137.7178  139.9438  160.8445 C.ar    1  UNL1        0.2149
      4 N         137.3875  140.0929  159.3889 N.pl3   1  UNL1       -0.3274
      5 N         138.2949  138.6566  161.3547 N.ar    1  UNL1       -0.2124
      6 C         138.6251  138.5076  162.8102 C.ar    1  UNL1        0.1041
      7 C         139.1996  137.3673  163.5974 C.ar    1  UNL1        0.0394
      8 C         139.3078  137.8007  165.0294 C.ar    1  UNL1        0.0779
      9 N         138.8001  139.2088  165.1272 N.ar    1  UNL1       -0.3169
     10 C         138.3782  139.6457  163.7557 C.ar    1  UNL1        0.1101
     11 H         137.0088  140.9377  159.0540 H       1  UNL1        0.1452
     12 H         137.5496  139.3459  158.7684 H       1  UNL1        0.1452
     13 N         137.5543  142.0709  164.1909 N.pl3   1  UNL1       -0.3119
     14 H         137.4520  141.8970  165.1545 H       1  UNL1        0.1486
     15 C         137.4634  143.4739  163.6682 C.3     1  UNL1        0.1383
     16 C         142.4228  145.2822  163.7912 C.3     1  UNL1        0.0754
     17 C         140.9933  145.0641  163.3923 C.ar    1  UNL1        0.1546
     18 C         140.0238  144.1341  164.0595 C.ar    1  UNL1        0.0553
     19 C         138.7138  144.2329  163.3358 C.ar    1  UNL1        0.1201
     20 N         138.8735  145.2241  162.2213 N.ar    1  UNL1       -0.0800
     21 O         140.2824  145.7378  162.2563 O.2     1  UNL1       -0.3580
     22 C         138.7273  140.0349  166.3771 C.3     1  UNL1        0.1520
     23 C         139.8397  139.9752  167.3815 C.ar    1  UNL1        0.0820
     24 C         141.2672  139.9823  166.9209 C.ar    1  UNL1        0.0190
     25 C         142.3797  139.9226  167.9253 C.ar    1  UNL1        0.0325
     26 C         142.0646  139.8558  169.3903 C.ar    1  UNL1        0.1592
     27 F         143.1771  139.7962  170.3948 F       1  UNL1       -0.2025
     28 C         140.6371  139.8488  169.8509 C.ar    1  UNL1        0.1280
     29 N         139.5247  139.9085  168.8465 N.ar    1  UNL1       -0.2439
@<TRIPOS>BOND
     1    16    17    1
     2    17    18   ar
     3    18    19   ar
     4    19    15    1
     5    15    13    1
     6    13     1    1
     7     1     2   ar
     8     2     3   ar
     9     3     4    1
    10     3     5   ar
    11     5     6   ar
    12     6     7   ar
    13     7     8   ar
    14     8     9   ar
    15     9    22    1
    16    22    23    1
    17    23    24   ar
    18    24    25   ar
    19    25    26   ar
    20    26    27    1
    21    26    28   ar
    22    28    29   ar
    23     9    10   ar
    24    19    20   ar
    25    20    21   ar
    26    21    17   ar
    27    10     1   ar
    28    10     6   ar
    29    29    23   ar
    30    13    14    1
    31     4    11    1
    32     4    12    1
@<TRIPOS>MOLECULE
*****
 29 32 0 0 0
SMALL
GASTEIGER

@<TRIPOS>ATOM
      1 C         141.9213  139.0618  163.7829 C.ar    1  UNL1        0.1491
      2 N         143.2412  138.7304  163.1521 N.ar    1  UNL1       -0.1977
      3 C         143.2861  138.1254  161.7804 C.ar    1  UNL1        0.2149
      4 N         144.6061  137.7940  161.1496 N.pl3   1  UNL1       -0.3274
      5 N         142.0110  137.8518  161.0392 N.ar    1  UNL1       -0.2124
      6 C         140.6910  138.1832  161.6699 C.ar    1  UNL1        0.1041
      7 C         139.2800  138.0280  161.1853 C.ar    1  UNL1        0.0394
      8 C         138.3630  138.5370  162.2577 C.ar    1  UNL1        0.0779
      9 N         139.2073  139.0069  163.4051 N.ar    1  UNL1       -0.3169
     10 C         140.6462  138.7882  163.0418 C.ar    1  UNL1        0.1101
     11 H         145.4430  137.9736  161.6360 H       1  UNL1        0.1452
     12 H         144.6356  137.3969  160.2492 H       1  UNL1        0.1452
     13 N         141.8764  139.6668  165.1547 N.pl3   1  UNL1       -0.3119
     14 H         141.5398  140.5838  165.2775 H       1  UNL1        0.1486
     15 C         142.3444  138.8747  166.3394 C.3     1  UNL1        0.1383
     16 C         143.1637  142.6445  169.9449 C.3     1  UNL1        0.0754
     17 C         143.0175  141.3014  169.2930 C.ar    1  UNL1        0.1546
     18 C         142.6862  141.0524  167.8514 C.ar    1  UNL1        0.0553
     19 C         142.6409  139.5687  167.6358 C.ar    1  UNL1        0.1201
     20 N         142.9442  138.9007  168.9441 N.ar    1  UNL1       -0.0800
     21 O         143.1770  139.9716  169.9683 O.2     1  UNL1       -0.3580
     22 C         138.7016  139.5926  164.6900 C.3     1  UNL1        0.1520
     23 C         138.7347  141.0772  164.9019 C.ar    1  UNL1        0.0820
     24 C         137.7298  141.9551  164.2169 C.ar    1  UNL1        0.0190
     25 C         137.7628  143.4397  164.4287 C.ar    1  UNL1        0.0325
     26 C         138.8009  144.0463  165.3256 C.ar    1  UNL1        0.1592
     27 F         138.8341  145.5309  165.5375 F       1  UNL1       -0.2025
     28 C         139.8059  143.1684  166.0106 C.ar    1  UNL1        0.1280
     29 N         139.7728  141.6839  165.7988 N.ar    1  UNL1       -0.2439
@<TRIPOS>BOND
     1    16    17    1
     2    17    18   ar
     3    18    19   ar
     4    19    15    1
     5    15    13    1
     6    13     1    1
     7     1     2   ar
     8     2     3   ar
     9     3     4    1
    10     3     5   ar
    11     5     6   ar
    12     6     7   ar
    13     7     8   ar
    14     8     9   ar
    15     9    22    1
    16    22    23    1
    17    23    24   ar
    18    24    25   ar
    19    25    26   ar
    20    26    27    1
    21    26    28   ar
    22    28    29   ar
    23     9    10   ar
    24    19    20   ar
    25    20    21   ar
    26    21    17   ar
    27    10     1   ar
    28    10     6   ar
    29    29    23   ar
    30    13    14    1
    31     4    11    1
    32     4    12    1
@<TRIPOS>MOLECULE
*****
 29 32 0 0 0
SMALL
GASTEIGER

@<TRIPOS>ATOM
      1 C         142.5185  141.8811  167.6600 C.ar    1  UNL1        0.1491
      2 N         143.2517  142.7164  168.6672 N.ar    1  UNL1       -0.1977
      3 C         142.7206  142.8450  170.0640 C.ar    1  UNL1        0.2149
      4 N         143.4538  143.6804  171.0714 N.pl3   1  UNL1       -0.3274
      5 N         141.4561  142.1383  170.4537 N.ar    1  UNL1       -0.2124
      6 C         140.7229  141.3029  169.4464 C.ar    1  UNL1        0.1041
      7 C         139.4619  140.4959  169.5390 C.ar    1  UNL1        0.0394
      8 C         139.2138  139.8686  168.1993 C.ar    1  UNL1        0.0779
      9 N         140.3214  140.2879  167.2787 N.ar    1  UNL1       -0.3169
     10 C         141.2542  141.1744  168.0496 C.ar    1  UNL1        0.1101
     11 H         144.2837  144.1443  170.8157 H       1  UNL1        0.1452
     12 H         143.1052  143.7648  171.9882 H       1  UNL1        0.1452
     13 N         143.0497  141.7525  166.2631 N.pl3   1  UNL1       -0.3119
     14 H         142.8682  140.9382  165.7404 H       1  UNL1        0.1486
     15 C         143.8575  142.8647  165.6625 C.3     1  UNL1        0.1383
     16 C         140.6486  145.4158  162.3345 C.3     1  UNL1        0.0754
     17 C         141.8660  144.7769  162.9344 C.ar    1  UNL1        0.1546
     18 C         141.9370  144.0949  164.2685 C.ar    1  UNL1        0.0553
     19 C         143.3408  143.6042  164.4641 C.ar    1  UNL1        0.1201
     20 N         144.1375  143.9830  163.2509 N.ar    1  UNL1       -0.0800
     21 O         143.2259  144.7077  162.3055 O.2     1  UNL1       -0.3580
     22 C         140.4702  139.8904  165.8400 C.3     1  UNL1        0.1520
     23 C         139.8121  140.7040  164.7653 C.ar    1  UNL1        0.0820
     24 C         138.5013  141.3817  165.0342 C.ar    1  UNL1        0.0190
     25 C         137.8431  142.1952  163.9595 C.ar    1  UNL1        0.0325
     26 C         138.4960  142.3310  162.6158 C.ar    1  UNL1        0.1592
     27 F         137.8379  143.1446  161.5410 F       1  UNL1       -0.2025
     28 C         139.8069  141.6533  162.3469 C.ar    1  UNL1        0.1280
     29 N         140.4649  140.8398  163.4216 N.ar    1  UNL1       -0.2439
@<TRIPOS>BOND
     1    16    17    1
     2    17    18   ar
     3    18    19   ar
     4    19    15    1
     5    15    13    1
     6    13     1    1
     7     1     2   ar
     8     2     3   ar
     9     3     4    1
    10     3     5   ar
    11     5     6   ar
    12     6     7   ar
    13     7     8   ar
    14     8     9   ar
    15     9    22    1
    16    22    23    1
    17    23    24   ar
    18    24    25   ar
    19    25    26   ar
    20    26    27    1
    21    26    28   ar
    22    28    29   ar
    23     9    10   ar
    24    19    20   ar
    25    20    21   ar
    26    21    17   ar
    27    10     1   ar
    28    10     6   ar
    29    29    23   ar
    30    13    14    1
    31     4    11    1
    32     4    12    1
@<TRIPOS>MOLECULE
*****
 29 32 0 0 0
SMALL
GASTEIGER

@<TRIPOS>ATOM
      1 C         139.6513  140.2438  167.4624 C.ar    1  UNL1        0.1491
      2 N         139.3127  139.7414  168.8346 N.ar    1  UNL1       -0.1977
      3 C         140.2296  140.0295  169.9862 C.ar    1  UNL1        0.2149
      4 N         139.8909  139.5270  171.3584 N.pl3   1  UNL1       -0.3274
      5 N         141.4852  140.8200  169.7657 N.ar    1  UNL1       -0.2124
      6 C         141.8238  141.3224  168.3935 C.ar    1  UNL1        0.1041
      7 C         142.9826  142.1213  167.8748 C.ar    1  UNL1        0.0394
      8 C         142.7817  142.3270  166.4026 C.ar    1  UNL1        0.0779
      9 N         141.4989  141.6552  166.0114 N.ar    1  UNL1       -0.3169
     10 C         140.9069  141.0343  167.2418 C.ar    1  UNL1        0.1101
     11 H         139.0668  139.0082  171.5032 H       1  UNL1        0.1452
     12 H         140.4927  139.7161  172.1143 H       1  UNL1        0.1452
     13 N         138.7344  139.9557  166.3108 N.pl3   1  UNL1       -0.3119
     14 H         138.2236  140.6866  165.8935 H       1  UNL1        0.1486
     15 C         138.5956  138.5541  165.7950 C.3     1  UNL1        0.1383
     16 C         139.3751  138.2359  160.5823 C.3     1  UNL1        0.0754
     17 C         139.5260  138.0406  162.0619 C.ar    1  UNL1        0.1546
     18 C         138.6592  138.6487  163.1244 C.ar    1  UNL1        0.0553
     19 C         139.1677  138.1869  164.4578 C.ar    1  UNL1        0.1201
     20 N         140.3488  137.2935  164.2195 N.ar    1  UNL1       -0.0800
     21 O         140.5702  137.2031  162.7387 O.2     1  UNL1       -0.3580
     22 C         140.9113  141.6119  164.6320 C.3     1  UNL1        0.1520
     23 C         140.5667  142.8882  163.9232 C.ar    1  UNL1        0.0820
     24 C         139.1983  143.4836  164.0736 C.ar    1  UNL1        0.0190
     25 C         138.8535  144.7599  163.3648 C.ar    1  UNL1        0.0325
     26 C         139.8775  145.4406  162.5056 C.ar    1  UNL1        0.1592
     27 F         139.5328  146.7169  161.7967 F       1  UNL1       -0.2025
     28 C         141.2460  144.8451  162.3552 C.ar    1  UNL1        0.1280
     29 N         141.5906  143.5690  163.0639 N.ar    1  UNL1       -0.2439
@<TRIPOS>BOND
     1    16    17    1
     2    17    18   ar
     3    18    19   ar
     4    19    15    1
     5    15    13    1
     6    13     1    1
     7     1     2   ar
     8     2     3   ar
     9     3     4    1
    10     3     5   ar
    11     5     6   ar
    12     6     7   ar
    13     7     8   ar
    14     8     9   ar
    15     9    22    1
    16    22    23    1
    17    23    24   ar
    18    24    25   ar
    19    25    26   ar
    20    26    27    1
    21    26    28   ar
    22    28    29   ar
    23     9    10   ar
    24    19    20   ar
    25    20    21   ar
    26    21    17   ar
    27    10     1   ar
    28    10     6   ar
    29    29    23   ar
    30    13    14    1
    31     4    11    1
    32     4    12    1
@<TRIPOS>MOLECULE
*****
 29 32 0 0 0
SMALL
GASTEIGER

@<TRIPOS>ATOM
      1 C         139.8629  140.4235  167.5285 C.ar    1  UNL1        0.1491
      2 N         139.3933  139.8525  168.8337 N.ar    1  UNL1       -0.1977
      3 C         140.2218  140.0298  170.0713 C.ar    1  UNL1        0.2149
      4 N         139.7522  139.4588  171.3766 N.pl3   1  UNL1       -0.3274
      5 N         141.5202  140.7781  170.0039 N.ar    1  UNL1       -0.2124
      6 C         141.9898  141.3491  168.6988 C.ar    1  UNL1        0.1041
      7 C         143.2166  142.1283  168.3276 C.ar    1  UNL1        0.0394
      8 C         143.1462  142.4325  166.8605 C.ar    1  UNL1        0.0779
      9 N         141.8758  141.8414  166.3249 N.ar    1  UNL1       -0.3169
     10 C         141.1611  141.1717  167.4611 C.ar    1  UNL1        0.1101
     11 H         138.9001  138.9677  171.4208 H       1  UNL1        0.1452
     12 H         140.2960  139.5752  172.1889 H       1  UNL1        0.1452
     13 N         139.0342  140.2461  166.2908 N.pl3   1  UNL1       -0.3119
     14 H         138.5912  141.0232  165.8796 H       1  UNL1        0.1486
     15 C         138.8807  138.8849  165.6797 C.3     1  UNL1        0.1383
     16 C         137.5410  139.9026  160.6746 C.3     1  UNL1        0.0754
     17 C         138.0664  139.2131  161.8989 C.ar    1  UNL1        0.1546
     18 C         138.0634  139.7676  163.2927 C.ar    1  UNL1        0.0553
     19 C         138.6822  138.7455  164.1994 C.ar    1  UNL1        0.1201
     20 N         139.0677  137.5593  163.3661 N.ar    1  UNL1       -0.0800
     21 O         138.6871  137.8484  161.9443 O.2     1  UNL1       -0.3580
     22 C         141.4032  141.9081  164.9029 C.3     1  UNL1        0.1520
     23 C         141.7118  140.7860  163.9565 C.ar    1  UNL1        0.0820
     24 C         142.3571  139.5314  164.4659 C.ar    1  UNL1        0.0190
     25 C         142.6656  138.4092  163.5196 C.ar    1  UNL1        0.0325
     26 C         142.3289  138.5417  162.0638 C.ar    1  UNL1        0.1592
     27 F         142.6374  137.4196  161.1174 F       1  UNL1       -0.2025
     28 C         141.6836  139.7964  161.5545 C.ar    1  UNL1        0.1280
     29 N         141.3751  140.9185  162.5009 N.ar    1  UNL1       -0.2439
@<TRIPOS>BOND
     1    16    17    1
     2    17    18   ar
     3    18    19   ar
     4    19    15    1
     5    15    13    1
     6    13     1    1
     7     1     2   ar
     8     2     3   ar
     9     3     4    1
    10     3     5   ar
    11     5     6   ar
    12     6     7   ar
    13     7     8   ar
    14     8     9   ar
    15     9    22    1
    16    22    23    1
    17    23    24   ar
    18    24    25   ar
    19    25    26   ar
    20    26    27    1
    21    26    28   ar
    22    28    29   ar
    23     9    10   ar
    24    19    20   ar
    25    20    21   ar
    26    21    17   ar
    27    10     1   ar
    28    10     6   ar
    29    29    23   ar
    30    13    14    1
    31     4    11    1
    32     4    12    1
@<TRIPOS>MOLECULE
*****
 29 32 0 0 0
SMALL
GASTEIGER

@<TRIPOS>ATOM
      1 C         142.6395  141.6840  168.2477 C.ar    1  UNL1        0.1491
      2 N         143.3947  142.6430  169.1195 N.ar    1  UNL1       -0.1977
      3 C         142.7995  143.1062  170.4160 C.ar    1  UNL1        0.2149
      4 N         143.5547  144.0652  171.2879 N.pl3   1  UNL1       -0.3274
      5 N         141.4490  142.6104  170.8409 N.ar    1  UNL1       -0.2124
      6 C         140.6938  141.6514  169.9691 C.ar    1  UNL1        0.1041
      7 C         139.3536  140.9958  170.1243 C.ar    1  UNL1        0.0394
      8 C         139.1207  140.1274  168.9237 C.ar    1  UNL1        0.0779
      9 N         140.3168  140.2463  168.0264 N.ar    1  UNL1       -0.3169
     10 C         141.2891  141.1883  168.6725 C.ar    1  UNL1        0.1101
     11 H         144.4411  144.3906  171.0091 H       1  UNL1        0.1452
     12 H         143.1640  144.3693  172.1388 H       1  UNL1        0.1452
     13 N         143.2348  141.2208  166.9511 N.pl3   1  UNL1       -0.3119
     14 H         143.4576  140.2704  166.8235 H       1  UNL1        0.1486
     15 C         143.4907  142.2057  165.8491 C.3     1  UNL1        0.1383
     16 C         144.1664  139.7823  161.2067 C.3     1  UNL1        0.0754
     17 C         144.4035  140.6298  162.4215 C.ar    1  UNL1        0.1546
     18 C         143.4499  140.8201  163.5636 C.ar    1  UNL1        0.0553
     19 C         144.0929  141.7437  164.5553 C.ar    1  UNL1        0.1201
     20 N         145.4439  142.1243  164.0261 N.ar    1  UNL1       -0.0800
     21 O         145.6358  141.4358  162.7073 O.2     1  UNL1       -0.3580
     22 C         140.5072  139.5462  166.7135 C.3     1  UNL1        0.1520
     23 C         139.6539  139.9149  165.5362 C.ar    1  UNL1        0.0820
     24 C         139.4205  138.9199  164.4384 C.ar    1  UNL1        0.0190
     25 C         138.5672  139.2885  163.2610 C.ar    1  UNL1        0.0325
     26 C         137.9474  140.6522  163.1817 C.ar    1  UNL1        0.1592
     27 F         137.0941  141.0209  162.0044 F       1  UNL1       -0.2025
     28 C         138.1809  141.6472  164.2797 C.ar    1  UNL1        0.1280
     29 N         139.0341  141.2785  165.4569 N.ar    1  UNL1       -0.2439
@<TRIPOS>BOND
     1    16    17    1
     2    17    18   ar
     3    18    19   ar
     4    19    15    1
     5    15    13    1
     6    13     1    1
     7     1     2   ar
     8     2     3   ar
     9     3     4    1
    10     3     5   ar
    11     5     6   ar
    12     6     7   ar
    13     7     8   ar
    14     8     9   ar
    15     9    22    1
    16    22    23    1
    17    23    24   ar
    18    24    25   ar
    19    25    26   ar
    20    26    27    1
    21    26    28   ar
    22    28    29   ar
    23     9    10   ar
    24    19    20   ar
    25    20    21   ar
    26    21    17   ar
    27    10     1   ar
    28    10     6   ar
    29    29    23   ar
    30    13    14    1
    31     4    11    1
    32     4    12    1
