@<TRIPOS>MOLECULE
*****
 27 30 0 0 0
SMALL
GASTEIGER

@<TRIPOS>ATOM
      1 C         137.7358  138.3789  166.7153 C.3     1  UNL1        0.0307
      2 C         138.9285  138.5450  165.8210 C.ar    1  UNL1       -0.0242
      3 C         138.9613  137.8707  164.4815 C.ar    1  UNL1        0.0161
      4 C         140.1540  138.0367  163.5872 C.ar    1  UNL1        0.0983
      5 N         140.4684  137.4978  162.2230 N.ar    1  UNL1       -0.2268
      6 C         141.8227  138.0052  161.8251 C.ar    1  UNL1        0.1438
      7 N         142.3454  138.8575  162.9434 N.ar    1  UNL1       -0.3072
      8 C         141.3140  138.8770  164.0324 C.ar    1  UNL1        0.0788
      9 C         141.2813  139.5513  165.3718 C.ar    1  UNL1        0.0142
     10 C         140.0885  139.3853  166.2662 C.ar    1  UNL1       -0.0243
     11 C         140.0558  140.0596  167.6057 C.3     1  UNL1        0.0307
     12 C         142.5303  137.7117  160.5354 C.2     1  UNL1        0.0338
     13 C         141.9632  138.2088  159.2388 C.2     1  UNL1       -0.0074
     14 C         142.6707  137.9153  157.9492 C.3     1  UNL1        0.0800
     15 C         142.6575  136.6080  157.2140 C.3     1  UNL1        0.0219
     16 C         143.4944  136.7624  155.9788 C.3     1  UNL1        0.0191
     17 C         144.0248  138.1652  155.9506 C.3     1  UNL1        0.0724
     18 N         143.5157  138.8778  157.1684 N.3     1  UNL1       -0.2691
     19 C         143.8015  140.3027  157.5401 C.3     1  UNL1        0.0899
     20 C         143.6672  139.5660  162.9682 C.3     1  UNL1        0.1342
     21 C         143.7266  141.0324  163.2784 C.ar    1  UNL1        0.0005
     22 C         143.0193  142.0154  162.3933 C.ar    1  UNL1       -0.0015
     23 C         143.0785  143.4818  162.7035 C.ar    1  UNL1        0.0111
     24 C         143.8451  143.9652  163.8987 C.ar    1  UNL1        0.0577
     25 CL        143.9045  145.4316  164.2089 Cl      1  UNL1       -0.0822
     26 C         144.5525  142.9822  164.7838 C.ar    1  UNL1        0.0111
     27 C         144.4932  141.5158  164.4737 C.ar    1  UNL1       -0.0015
@<TRIPOS>BOND
     1     1     2    1
     2     2     3   ar
     3     3     4   ar
     4     4     5   ar
     5     5     6   ar
     6     6    12    1
     7    12    13    2
     8    13    14    1
     9    14    15    1
    10    15    16    1
    11    16    17    1
    12    17    18    1
    13    18    19    1
    14     6     7   ar
    15     7    20    1
    16    20    21    1
    17    21    22   ar
    18    22    23   ar
    19    23    24   ar
    20    24    25    1
    21    24    26   ar
    22    26    27   ar
    23     7     8   ar
    24     8     9   ar
    25     9    10   ar
    26    10    11    1
    27    10     2   ar
    28     8     4   ar
    29    18    14    1
    30    27    21   ar
@<TRIPOS>MOLECULE
*****
 27 30 0 0 0
SMALL
GASTEIGER

@<TRIPOS>ATOM
      1 C         140.2404  140.5309  170.7160 C.3     1  UNL1        0.0307
      2 C         140.9420  140.7206  169.4039 C.ar    1  UNL1       -0.0242
      3 C         140.4773  141.7821  168.4514 C.ar    1  UNL1        0.0161
      4 C         141.1789  141.9718  167.1393 C.ar    1  UNL1        0.0983
      5 N         140.9485  142.9282  166.0069 N.ar    1  UNL1       -0.2268
      6 C         141.9725  142.6475  164.9475 C.ar    1  UNL1        0.1438
      7 N         142.8358  141.5176  165.4250 N.ar    1  UNL1       -0.3072
      8 C         142.3453  141.0999  166.7796 C.ar    1  UNL1        0.0788
      9 C         142.8101  140.0385  167.7321 C.ar    1  UNL1        0.0142
     10 C         142.1084  139.8488  169.0442 C.ar    1  UNL1       -0.0243
     11 C         142.5732  138.7872  169.9967 C.3     1  UNL1        0.0307
     12 C         142.1093  143.3699  163.6399 C.2     1  UNL1        0.0338
     13 C         141.2590  142.9713  162.4703 C.2     1  UNL1       -0.0074
     14 C         141.3959  143.6937  161.1629 C.3     1  UNL1        0.0800
     15 C         142.1442  143.2036  159.9589 C.3     1  UNL1        0.0219
     16 C         142.0192  144.2400  158.8818 C.3     1  UNL1        0.0191
     17 C         141.1936  145.3707  159.4201 C.3     1  UNL1        0.0724
     18 N         140.8083  145.0330  160.8300 N.3     1  UNL1       -0.2691
     19 C         139.9807  145.8852  161.7460 C.3     1  UNL1        0.0899
     20 C         143.9874  140.9116  164.6789 C.3     1  UNL1        0.1342
     21 C         143.7321  140.0359  163.4882 C.ar    1  UNL1        0.0005
     22 C         144.4008  140.3360  162.1794 C.ar    1  UNL1       -0.0015
     23 C         144.1456  139.4603  160.9885 C.ar    1  UNL1        0.0111
     24 C         143.2217  138.2846  161.1064 C.ar    1  UNL1        0.0577
     25 CL        142.9664  137.4089  159.9157 Cl      1  UNL1       -0.0822
     26 C         142.5529  137.9845  162.4151 C.ar    1  UNL1        0.0111
     27 C         142.8082  138.8602  163.6060 C.ar    1  UNL1       -0.0015
@<TRIPOS>BOND
     1     1     2    1
     2     2     3   ar
     3     3     4   ar
     4     4     5   ar
     5     5     6   ar
     6     6    12    1
     7    12    13    2
     8    13    14    1
     9    14    15    1
    10    15    16    1
    11    16    17    1
    12    17    18    1
    13    18    19    1
    14     6     7   ar
    15     7    20    1
    16    20    21    1
    17    21    22   ar
    18    22    23   ar
    19    23    24   ar
    20    24    25    1
    21    24    26   ar
    22    26    27   ar
    23     7     8   ar
    24     8     9   ar
    25     9    10   ar
    26    10    11    1
    27    10     2   ar
    28     8     4   ar
    29    18    14    1
    30    27    21   ar
@<TRIPOS>MOLECULE
*****
 27 30 0 0 0
SMALL
GASTEIGER

@<TRIPOS>ATOM
      1 C         142.2793  139.5672  169.5586 C.3     1  UNL1        0.0307
      2 C         142.6390  140.1285  168.2149 C.ar    1  UNL1       -0.0242
      3 C         142.7782  139.2151  167.0333 C.ar    1  UNL1        0.0161
      4 C         143.1378  139.7765  165.6896 C.ar    1  UNL1        0.0983
      5 N         143.3436  139.1274  164.3530 N.ar    1  UNL1       -0.2268
      6 C         143.6913  140.2011  163.3649 C.ar    1  UNL1        0.1438
      7 N         143.7005  141.5137  164.0908 N.ar    1  UNL1       -0.3072
      8 C         143.3584  141.2513  165.5275 C.ar    1  UNL1        0.0788
      9 C         143.2192  142.1647  166.7092 C.ar    1  UNL1        0.0142
     10 C         142.8596  141.6033  168.0528 C.ar    1  UNL1       -0.0243
     11 C         142.7204  142.5168  169.2345 C.3     1  UNL1        0.0307
     12 C         143.9793  139.9978  161.9069 C.2     1  UNL1        0.0338
     13 C         142.8898  140.1876  160.8936 C.2     1  UNL1       -0.0074
     14 C         143.1778  139.9844  159.4356 C.3     1  UNL1        0.0800
     15 C         142.7434  138.8127  158.6061 C.3     1  UNL1        0.0219
     16 C         143.2480  139.0213  157.2090 C.3     1  UNL1        0.0191
     17 C         143.9943  140.3220  157.1751 C.3     1  UNL1        0.0724
     18 N         143.9510  140.9173  158.5513 N.3     1  UNL1       -0.2691
     19 C         144.5717  142.2172  158.9697 C.3     1  UNL1        0.0899
     20 C         143.9992  142.8535  163.4862 C.3     1  UNL1        0.1342
     21 C         142.8771  143.7332  163.0203 C.ar    1  UNL1        0.0005
     22 C         142.0274  144.4585  164.0213 C.ar    1  UNL1       -0.0015
     23 C         140.9053  145.3381  163.5555 C.ar    1  UNL1        0.0111
     24 C         140.6329  145.4926  162.0885 C.ar    1  UNL1        0.0577
     25 CL        139.5108  146.3722  161.6226 Cl      1  UNL1       -0.0822
     26 C         141.4825  144.7674  161.0875 C.ar    1  UNL1        0.0111
     27 C         142.6047  143.8876  161.5533 C.ar    1  UNL1       -0.0015
@<TRIPOS>BOND
     1     1     2    1
     2     2     3   ar
     3     3     4   ar
     4     4     5   ar
     5     5     6   ar
     6     6    12    1
     7    12    13    2
     8    13    14    1
     9    14    15    1
    10    15    16    1
    11    16    17    1
    12    17    18    1
    13    18    19    1
    14     6     7   ar
    15     7    20    1
    16    20    21    1
    17    21    22   ar
    18    22    23   ar
    19    23    24   ar
    20    24    25    1
    21    24    26   ar
    22    26    27   ar
    23     7     8   ar
    24     8     9   ar
    25     9    10   ar
    26    10    11    1
    27    10     2   ar
    28     8     4   ar
    29    18    14    1
    30    27    21   ar
@<TRIPOS>MOLECULE
*****
 27 30 0 0 0
SMALL
GASTEIGER

@<TRIPOS>ATOM
      1 C         142.5713  143.2297  170.4582 C.3     1  UNL1        0.0307
      2 C         142.0702  142.3427  169.3571 C.ar    1  UNL1       -0.0242
      3 C         142.9579  142.0190  168.1922 C.ar    1  UNL1        0.0161
      4 C         142.4568  141.1320  167.0912 C.ar    1  UNL1        0.0983
      5 N         143.0983  140.6413  165.8271 N.ar    1  UNL1       -0.2268
      6 C         142.1060  139.7748  165.1099 C.ar    1  UNL1        0.1438
      7 N         140.8512  139.7300  165.9307 N.ar    1  UNL1       -0.3072
      8 C         141.0681  140.5688  167.1551 C.ar    1  UNL1        0.0788
      9 C         140.1804  140.8926  168.3201 C.ar    1  UNL1        0.0142
     10 C         140.6815  141.7796  169.4211 C.ar    1  UNL1       -0.0243
     11 C         139.7937  142.1033  170.5861 C.3     1  UNL1        0.0307
     12 C         142.3292  139.0757  163.8016 C.2     1  UNL1        0.0338
     13 C         141.9336  139.7429  162.5177 C.2     1  UNL1       -0.0074
     14 C         142.1568  139.0439  161.2095 C.3     1  UNL1        0.0800
     15 C         142.9988  137.8212  160.9956 C.3     1  UNL1        0.0219
     16 C         142.9396  137.4664  159.5394 C.3     1  UNL1        0.0191
     17 C         142.0609  138.4699  158.8533 C.3     1  UNL1        0.0724
     18 N         141.5771  139.4450  159.8855 N.3     1  UNL1       -0.2691
     19 C         140.6725  140.6154  159.6371 C.3     1  UNL1        0.0899
     20 C         139.5994  138.9784  165.5872 C.3     1  UNL1        0.1342
     21 C         138.9574  139.1643  164.2444 C.ar    1  UNL1        0.0005
     22 C         138.4086  140.5049  163.8546 C.ar    1  UNL1       -0.0015
     23 C         137.7666  140.6909  162.5118 C.ar    1  UNL1        0.0111
     24 C         137.6733  139.5365  161.5587 C.ar    1  UNL1        0.0577
     25 CL        137.0313  139.7224  160.2159 Cl      1  UNL1       -0.0822
     26 C         138.2220  138.1959  161.9484 C.ar    1  UNL1        0.0111
     27 C         138.8640  138.0099  163.2913 C.ar    1  UNL1       -0.0015
@<TRIPOS>BOND
     1     1     2    1
     2     2     3   ar
     3     3     4   ar
     4     4     5   ar
     5     5     6   ar
     6     6    12    1
     7    12    13    2
     8    13    14    1
     9    14    15    1
    10    15    16    1
    11    16    17    1
    12    17    18    1
    13    18    19    1
    14     6     7   ar
    15     7    20    1
    16    20    21    1
    17    21    22   ar
    18    22    23   ar
    19    23    24   ar
    20    24    25    1
    21    24    26   ar
    22    26    27   ar
    23     7     8   ar
    24     8     9   ar
    25     9    10   ar
    26    10    11    1
    27    10     2   ar
    28     8     4   ar
    29    18    14    1
    30    27    21   ar
@<TRIPOS>MOLECULE
*****
 27 30 0 0 0
SMALL
GASTEIGER

@<TRIPOS>ATOM
      1 C         142.9646  142.0330  170.4451 C.3     1  UNL1        0.0307
      2 C         142.9444  141.5068  169.0406 C.ar    1  UNL1       -0.0242
      3 C         143.2697  142.4172  167.8938 C.ar    1  UNL1        0.0161
      4 C         143.2495  141.8910  166.4893 C.ar    1  UNL1        0.0983
      5 N         143.5238  142.5460  165.1680 N.ar    1  UNL1       -0.2268
      6 C         143.3477  141.5141  164.0937 C.ar    1  UNL1        0.1438
      7 N         142.9645  140.2214  164.7510 N.ar    1  UNL1       -0.3072
      8 C         142.9038  140.4543  166.2316 C.ar    1  UNL1        0.0788
      9 C         142.5784  139.5439  167.3784 C.ar    1  UNL1        0.0142
     10 C         142.5987  140.0701  168.7829 C.ar    1  UNL1       -0.0243
     11 C         142.2733  139.1596  169.9297 C.3     1  UNL1        0.0307
     12 C         143.5239  141.7359  162.6206 C.2     1  UNL1        0.0338
     13 C         142.9264  142.9470  161.9678 C.2     1  UNL1       -0.0074
     14 C         143.1026  143.1688  160.4948 C.3     1  UNL1        0.0800
     15 C         144.0996  142.4782  159.6123 C.3     1  UNL1        0.0219
     16 C         143.9259  143.0027  158.2178 C.3     1  UNL1        0.0191
     17 C         142.8215  144.0175  158.2385 C.3     1  UNL1        0.0724
     18 N         142.3126  144.1202  159.6458 N.3     1  UNL1       -0.2691
     19 C         141.2078  145.0168  160.1207 C.3     1  UNL1        0.0899
     20 C         142.6902  138.9235  164.0508 C.3     1  UNL1        0.1342
     21 C         141.3444  138.6716  163.4382 C.ar    1  UNL1        0.0005
     22 C         141.2375  138.3030  161.9881 C.ar    1  UNL1       -0.0015
     23 C         139.8917  138.0511  161.3754 C.ar    1  UNL1        0.0111
     24 C         138.6527  138.1677  162.2129 C.ar    1  UNL1        0.0577
     25 CL        137.3069  137.9158  161.6003 Cl      1  UNL1       -0.0822
     26 C         138.7595  138.5363  163.6630 C.ar    1  UNL1        0.0111
     27 C         140.1054  138.7882  164.2756 C.ar    1  UNL1       -0.0015
@<TRIPOS>BOND
     1     1     2    1
     2     2     3   ar
     3     3     4   ar
     4     4     5   ar
     5     5     6   ar
     6     6    12    1
     7    12    13    2
     8    13    14    1
     9    14    15    1
    10    15    16    1
    11    16    17    1
    12    17    18    1
    13    18    19    1
    14     6     7   ar
    15     7    20    1
    16    20    21    1
    17    21    22   ar
    18    22    23   ar
    19    23    24   ar
    20    24    25    1
    21    24    26   ar
    22    26    27   ar
    23     7     8   ar
    24     8     9   ar
    25     9    10   ar
    26    10    11    1
    27    10     2   ar
    28     8     4   ar
    29    18    14    1
    30    27    21   ar
@<TRIPOS>MOLECULE
*****
 27 30 0 0 0
SMALL
GASTEIGER

@<TRIPOS>ATOM
      1 C         138.4274  144.8589  165.5616 C.3     1  UNL1        0.0307
      2 C         139.3257  144.6190  164.3845 C.ar    1  UNL1       -0.0242
      3 C         139.0174  145.2583  163.0631 C.ar    1  UNL1        0.0161
      4 C         139.9157  145.0184  161.8861 C.ar    1  UNL1        0.0983
      5 N         139.8667  145.5095  160.4695 N.ar    1  UNL1       -0.2268
      6 C         141.0431  144.9337  159.7384 C.ar    1  UNL1        0.1438
      7 N         141.8191  144.0867  160.7031 N.ar    1  UNL1       -0.3072
      8 C         141.1223  144.1391  162.0304 C.ar    1  UNL1        0.0788
      9 C         141.4306  143.4998  163.3518 C.ar    1  UNL1        0.0142
     10 C         140.5323  143.7397  164.5289 C.ar    1  UNL1       -0.0243
     11 C         140.8407  143.1003  165.8503 C.3     1  UNL1        0.0307
     12 C         141.3837  145.1642  158.2959 C.2     1  UNL1        0.0338
     13 C         140.3857  145.8144  157.3842 C.2     1  UNL1       -0.0074
     14 C         140.7264  146.0450  155.9418 C.3     1  UNL1        0.0800
     15 C         141.7503  145.2910  155.1463 C.3     1  UNL1        0.0219
     16 C         141.7597  145.8500  153.7544 C.3     1  UNL1        0.0191
     17 C         140.7415  146.9496  153.6897 C.3     1  UNL1        0.0724
     18 N         140.1028  147.0701  155.0416 N.3     1  UNL1       -0.2691
     19 C         139.0292  148.0446  155.4258 C.3     1  UNL1        0.0899
     20 C         143.0719  143.3217  160.3947 C.3     1  UNL1        0.1342
     21 C         143.6155  142.3399  161.3899 C.ar    1  UNL1        0.0005
     22 C         144.7545  142.7312  162.2842 C.ar    1  UNL1       -0.0015
     23 C         145.2981  141.7494  163.2795 C.ar    1  UNL1        0.0111
     24 C         144.7027  140.3764  163.3806 C.ar    1  UNL1        0.0577
     25 CL        145.2463  139.3946  164.3759 Cl      1  UNL1       -0.0822
     26 C         143.5637  139.9851  162.4864 C.ar    1  UNL1        0.0111
     27 C         143.0201  140.9669  161.4911 C.ar    1  UNL1       -0.0015
@<TRIPOS>BOND
     1     1     2    1
     2     2     3   ar
     3     3     4   ar
     4     4     5   ar
     5     5     6   ar
     6     6    12    1
     7    12    13    2
     8    13    14    1
     9    14    15    1
    10    15    16    1
    11    16    17    1
    12    17    18    1
    13    18    19    1
    14     6     7   ar
    15     7    20    1
    16    20    21    1
    17    21    22   ar
    18    22    23   ar
    19    23    24   ar
    20    24    25    1
    21    24    26   ar
    22    26    27   ar
    23     7     8   ar
    24     8     9   ar
    25     9    10   ar
    26    10    11    1
    27    10     2   ar
    28     8     4   ar
    29    18    14    1
    30    27    21   ar
@<TRIPOS>MOLECULE
*****
 27 30 0 0 0
SMALL
GASTEIGER

@<TRIPOS>ATOM
      1 C         142.5385  140.0110  170.7060 C.3     1  UNL1        0.0307
      2 C         142.6434  140.4439  169.2737 C.ar    1  UNL1       -0.0242
      3 C         142.1351  139.5507  168.1811 C.ar    1  UNL1        0.0161
      4 C         142.2399  139.9836  166.7488 C.ar    1  UNL1        0.0983
      5 N         141.8289  139.3210  165.4673 N.ar    1  UNL1       -0.2268
      6 C         142.1881  140.2375  164.3356 C.ar    1  UNL1        0.1438
      7 N         142.8211  141.4666  164.9176 N.ar    1  UNL1       -0.3072
      8 C         142.8532  141.3096  166.4090 C.ar    1  UNL1        0.0788
      9 C         143.3615  142.2028  167.5016 C.ar    1  UNL1        0.0142
     10 C         143.2566  141.7700  168.9339 C.ar    1  UNL1       -0.0243
     11 C         143.7650  142.6632  170.0265 C.3     1  UNL1        0.0307
     12 C         141.9551  139.9718  162.8778 C.2     1  UNL1        0.0338
     13 C         140.7911  140.6065  162.1763 C.2     1  UNL1       -0.0074
     14 C         140.5582  140.3407  160.7186 C.3     1  UNL1        0.0800
     15 C         141.0586  141.1776  159.5789 C.3     1  UNL1        0.0219
     16 C         140.5937  140.5455  158.3005 C.3     1  UNL1        0.0191
     17 C         139.8059  139.3179  158.6502 C.3     1  UNL1        0.0724
     18 N         139.7839  139.1913  160.1447 N.3     1  UNL1       -0.2691
     19 C         139.1066  138.1059  160.9277 C.3     1  UNL1        0.0899
     20 C         143.3323  142.6457  164.1440 C.3     1  UNL1        0.1342
     21 C         142.3670  143.5920  163.4941 C.ar    1  UNL1        0.0005
     22 C         141.2718  144.2200  164.3043 C.ar    1  UNL1       -0.0015
     23 C         140.3064  145.1664  163.6545 C.ar    1  UNL1        0.0111
     24 C         140.4361  145.4849  162.1944 C.ar    1  UNL1        0.0577
     25 CL        139.4708  146.4313  161.5445 Cl      1  UNL1       -0.0822
     26 C         141.5313  144.8570  161.3842 C.ar    1  UNL1        0.0111
     27 C         142.4967  143.9106  162.0341 C.ar    1  UNL1       -0.0015
@<TRIPOS>BOND
     1     1     2    1
     2     2     3   ar
     3     3     4   ar
     4     4     5   ar
     5     5     6   ar
     6     6    12    1
     7    12    13    2
     8    13    14    1
     9    14    15    1
    10    15    16    1
    11    16    17    1
    12    17    18    1
    13    18    19    1
    14     6     7   ar
    15     7    20    1
    16    20    21    1
    17    21    22   ar
    18    22    23   ar
    19    23    24   ar
    20    24    25    1
    21    24    26   ar
    22    26    27   ar
    23     7     8   ar
    24     8     9   ar
    25     9    10   ar
    26    10    11    1
    27    10     2   ar
    28     8     4   ar
    29    18    14    1
    30    27    21   ar
@<TRIPOS>MOLECULE
*****
 27 30 0 0 0
SMALL
GASTEIGER

@<TRIPOS>ATOM
      1 C         142.9237  139.9823  170.6539 C.3     1  UNL1        0.0307
      2 C         142.1090  140.1268  169.4027 C.ar    1  UNL1       -0.0242
      3 C         142.4451  139.3099  168.1905 C.ar    1  UNL1        0.0161
      4 C         141.6305  139.4543  166.9393 C.ar    1  UNL1        0.0983
      5 N         141.7233  138.7879  165.5986 N.ar    1  UNL1       -0.2268
      6 C         140.6300  139.3375  164.7311 C.ar    1  UNL1        0.1438
      7 N         139.8614  140.3435  165.5357 N.ar    1  UNL1       -0.3072
      8 C         140.4798  140.4157  166.9004 C.ar    1  UNL1        0.0788
      9 C         140.1437  141.2326  168.1126 C.ar    1  UNL1        0.0142
     10 C         140.9583  141.0882  169.3638 C.ar    1  UNL1       -0.0243
     11 C         140.6222  141.9052  170.5762 C.3     1  UNL1        0.0307
     12 C         140.3536  138.9493  163.3088 C.2     1  UNL1        0.0338
     13 C         141.1733  139.5365  162.1983 C.2     1  UNL1       -0.0074
     14 C         140.8969  139.1482  160.7760 C.3     1  UNL1        0.0800
     15 C         139.5452  138.8913  160.1790 C.3     1  UNL1        0.0219
     16 C         139.7366  138.5330  158.7351 C.3     1  UNL1        0.0191
     17 C         141.2068  138.5685  158.4397 C.3     1  UNL1        0.0724
     18 N         141.9240  138.9488  159.7011 N.3     1  UNL1       -0.2691
     19 C         143.4077  139.1026  159.8597 C.3     1  UNL1        0.0899
     20 C         138.6816  141.1379  165.0592 C.3     1  UNL1        0.1342
     21 C         138.8939  142.4094  164.2922 C.ar    1  UNL1        0.0005
     22 C         139.1473  143.6937  165.0245 C.ar    1  UNL1       -0.0015
     23 C         139.3596  144.9652  164.2575 C.ar    1  UNL1        0.0111
     24 C         139.3184  144.9524  162.7582 C.ar    1  UNL1        0.0577
     25 CL        139.5307  146.2238  161.9911 Cl      1  UNL1       -0.0822
     26 C         139.0650  143.6681  162.0258 C.ar    1  UNL1        0.0111
     27 C         138.8527  142.3966  162.7928 C.ar    1  UNL1       -0.0015
@<TRIPOS>BOND
     1     1     2    1
     2     2     3   ar
     3     3     4   ar
     4     4     5   ar
     5     5     6   ar
     6     6    12    1
     7    12    13    2
     8    13    14    1
     9    14    15    1
    10    15    16    1
    11    16    17    1
    12    17    18    1
    13    18    19    1
    14     6     7   ar
    15     7    20    1
    16    20    21    1
    17    21    22   ar
    18    22    23   ar
    19    23    24   ar
    20    24    25    1
    21    24    26   ar
    22    26    27   ar
    23     7     8   ar
    24     8     9   ar
    25     9    10   ar
    26    10    11    1
    27    10     2   ar
    28     8     4   ar
    29    18    14    1
    30    27    21   ar
@<TRIPOS>MOLECULE
*****
 27 30 0 0 0
SMALL
GASTEIGER

@<TRIPOS>ATOM
      1 C         135.8682  142.2166  154.2979 C.3     1  UNL1        0.0307
      2 C         136.6849  142.2340  155.5560 C.ar    1  UNL1       -0.0242
      3 C         136.6719  141.0486  156.4750 C.ar    1  UNL1        0.0161
      4 C         137.4885  141.0660  157.7331 C.ar    1  UNL1        0.0983
      5 N         137.6734  140.0528  158.8238 N.ar    1  UNL1       -0.2268
      6 C         138.6174  140.6295  159.8369 C.ar    1  UNL1        0.1438
      7 N         139.0159  141.9990  159.3723 N.ar    1  UNL1       -0.3072
      8 C         138.3182  142.2687  158.0721 C.ar    1  UNL1        0.0788
      9 C         138.3312  143.4541  157.1531 C.ar    1  UNL1        0.0142
     10 C         137.5145  143.4367  155.8950 C.ar    1  UNL1       -0.0243
     11 C         137.5276  144.6222  154.9760 C.3     1  UNL1        0.0307
     12 C         139.0814  139.9551  161.0939 C.2     1  UNL1        0.0338
     13 C         138.1169  139.7186  162.2180 C.2     1  UNL1       -0.0074
     14 C         138.5810  139.0443  163.4749 C.3     1  UNL1        0.0800
     15 C         139.0146  137.6139  163.5995 C.3     1  UNL1        0.0219
     16 C         139.3945  137.3675  165.0296 C.3     1  UNL1        0.0191
     17 C         139.1956  138.6457  165.7888 C.3     1  UNL1        0.0724
     18 N         138.6928  139.6822  164.8280 N.3     1  UNL1       -0.2691
     19 C         138.3602  141.1063  165.1616 C.3     1  UNL1        0.0899
     20 C         139.9483  142.9345  160.0832 C.3     1  UNL1        0.1342
     21 C         139.5877  143.4668  161.4384 C.ar    1  UNL1        0.0005
     22 C         140.6629  143.9586  162.3615 C.ar    1  UNL1       -0.0015
     23 C         140.3024  144.4909  163.7167 C.ar    1  UNL1        0.0111
     24 C         138.8666  144.5314  164.1489 C.ar    1  UNL1        0.0577
     25 CL        138.5060  145.0637  165.5041 Cl      1  UNL1       -0.0822
     26 C         137.7913  144.0397  163.2259 C.ar    1  UNL1        0.0111
     27 C         138.1519  143.5073  161.8706 C.ar    1  UNL1       -0.0015
@<TRIPOS>BOND
     1     1     2    1
     2     2     3   ar
     3     3     4   ar
     4     4     5   ar
     5     5     6   ar
     6     6    12    1
     7    12    13    2
     8    13    14    1
     9    14    15    1
    10    15    16    1
    11    16    17    1
    12    17    18    1
    13    18    19    1
    14     6     7   ar
    15     7    20    1
    16    20    21    1
    17    21    22   ar
    18    22    23   ar
    19    23    24   ar
    20    24    25    1
    21    24    26   ar
    22    26    27   ar
    23     7     8   ar
    24     8     9   ar
    25     9    10   ar
    26    10    11    1
    27    10     2   ar
    28     8     4   ar
    29    18    14    1
    30    27    21   ar
