@<TRIPOS>MOLECULE
*****
 15 17 0 0 0
SMALL
GASTEIGER

@<TRIPOS>ATOM
      1 CL        137.4946  141.4624  163.4999 Cl      1  UNL1       -0.0814
      2 C         138.2858  141.1085  164.7242 C.ar    1  UNL1        0.0682
      3 C         138.1330  139.7540  165.3503 C.ar    1  UNL1        0.0119
      4 C         138.9242  139.4002  166.5745 C.ar    1  UNL1       -0.0033
      5 C         139.8680  140.4008  167.1728 C.ar    1  UNL1       -0.0206
      6 C         140.0207  141.7552  166.5467 C.ar    1  UNL1        0.0080
      7 C         139.2296  142.1091  165.3224 C.ar    1  UNL1        0.0679
      8 CL        139.3824  143.4637  164.6963 Cl      1  UNL1       -0.0814
      9 C         140.6592  140.0469  168.3970 C.3     1  UNL1        0.0348
     10 C         141.9203  139.6855  167.6697 C.3     1  UNL1        0.0726
     11 N         142.9405  139.2715  168.6884 N.3     1  UNL1       -0.2972
     12 C         142.3099  139.3771  170.0454 C.3     1  UNL1        0.0689
     13 C         140.8999  139.8563  169.8653 C.3     1  UNL1        0.0211
     14 C         139.5634  140.3343  169.3803 C.3     1  UNL1        0.0072
     15 H         143.7523  139.8868  168.6352 H       1  UNL1        0.1233
@<TRIPOS>BOND
     1     1     2    1
     2     2     3   ar
     3     3     4   ar
     4     4     5   ar
     5     5     9    1
     6     9    10    1
     7    10    11    1
     8    11    12    1
     9    12    13    1
    10    13    14    1
    11     5     6   ar
    12     6     7   ar
    13     7     8    1
    14     7     2   ar
    15    13     9    1
    16    14     9    1
    17    11    15    1
@<TRIPOS>MOLECULE
*****
 15 17 0 0 0
SMALL
GASTEIGER

@<TRIPOS>ATOM
      1 CL        139.6578  137.5021  164.1469 Cl      1  UNL1       -0.0814
      2 C         140.3888  138.3862  165.1133 C.ar    1  UNL1        0.0682
      3 C         141.8886  138.4123  165.1189 C.ar    1  UNL1        0.0119
      4 C         142.6196  139.2964  166.0853 C.ar    1  UNL1       -0.0033
      5 C         141.8510  140.1543  167.0461 C.ar    1  UNL1       -0.0206
      6 C         140.3513  140.1282  167.0404 C.ar    1  UNL1        0.0080
      7 C         139.6202  139.2441  166.0740 C.ar    1  UNL1        0.0679
      8 CL        138.1204  139.2180  166.0683 Cl      1  UNL1       -0.0814
      9 C         142.5821  141.0384  168.0125 C.3     1  UNL1        0.0348
     10 C         142.6478  140.0342  169.1248 C.3     1  UNL1        0.0726
     11 N         143.3606  140.6697  170.2815 N.3     1  UNL1       -0.2972
     12 C         143.7355  142.0667  169.8840 C.3     1  UNL1        0.0689
     13 C         143.2543  142.2945  168.4817 C.3     1  UNL1        0.0211
     14 C         142.6692  142.2275  167.1022 C.3     1  UNL1        0.0072
     15 H         144.2007  140.1364  170.5057 H       1  UNL1        0.1233
@<TRIPOS>BOND
     1     1     2    1
     2     2     3   ar
     3     3     4   ar
     4     4     5   ar
     5     5     9    1
     6     9    10    1
     7    10    11    1
     8    11    12    1
     9    12    13    1
    10    13    14    1
    11     5     6   ar
    12     6     7   ar
    13     7     8    1
    14     7     2   ar
    15    13     9    1
    16    14     9    1
    17    11    15    1
@<TRIPOS>MOLECULE
*****
 15 17 0 0 0
SMALL
GASTEIGER

@<TRIPOS>ATOM
      1 CL        137.8359  140.6219  163.9958 Cl      1  UNL1       -0.0814
      2 C         138.7602  141.0311  165.1041 C.ar    1  UNL1        0.0682
      3 C         139.5112  142.3264  165.0147 C.ar    1  UNL1        0.0119
      4 C         140.4354  142.7355  166.1230 C.ar    1  UNL1       -0.0033
      5 C         140.6087  141.8493  167.3207 C.ar    1  UNL1       -0.0206
      6 C         139.8577  140.5540  167.4101 C.ar    1  UNL1        0.0080
      7 C         138.9335  140.1448  166.3018 C.ar    1  UNL1        0.0679
      8 CL        138.1825  138.8494  166.3913 Cl      1  UNL1       -0.0814
      9 C         141.5330  142.2584  168.4290 C.3     1  UNL1        0.0348
     10 C         140.5421  143.1255  169.1476 C.3     1  UNL1        0.0726
     11 N         141.2187  143.6980  170.3576 N.3     1  UNL1       -0.2972
     12 C         142.6279  143.1848  170.3870 C.3     1  UNL1        0.0689
     13 C         142.8221  142.2951  169.1950 C.3     1  UNL1        0.0211
     14 C         142.7172  141.4769  167.9422 C.3     1  UNL1        0.0072
     15 H         140.7259  143.4047  171.2011 H       1  UNL1        0.1233
@<TRIPOS>BOND
     1     1     2    1
     2     2     3   ar
     3     3     4   ar
     4     4     5   ar
     5     5     9    1
     6     9    10    1
     7    10    11    1
     8    11    12    1
     9    12    13    1
    10    13    14    1
    11     5     6   ar
    12     6     7   ar
    13     7     8    1
    14     7     2   ar
    15    13     9    1
    16    14     9    1
    17    11    15    1
@<TRIPOS>MOLECULE
*****
 15 17 0 0 0
SMALL
GASTEIGER

@<TRIPOS>ATOM
      1 CL        141.0837  137.2805  164.0927 Cl      1  UNL1       -0.0814
      2 C         140.8823  138.3104  165.1645 C.ar    1  UNL1        0.0682
      3 C         139.5039  138.8192  165.4663 C.ar    1  UNL1        0.0119
      4 C         139.3026  139.8491  166.5381 C.ar    1  UNL1       -0.0033
      5 C         140.4796  140.3702  167.3081 C.ar    1  UNL1       -0.0206
      6 C         141.8580  139.8615  167.0063 C.ar    1  UNL1        0.0080
      7 C         142.0594  138.8315  165.9345 C.ar    1  UNL1        0.0679
      8 CL        143.4379  138.3228  165.6327 Cl      1  UNL1       -0.0814
      9 C         140.2783  141.4001  168.3799 C.3     1  UNL1        0.0348
     10 C         139.7700  140.4465  169.4202 C.3     1  UNL1        0.0726
     11 N         139.4712  141.2320  170.6627 N.3     1  UNL1       -0.2972
     12 C         139.7948  142.6712  170.3902 C.3     1  UNL1        0.0689
     13 C         140.2936  142.7750  168.9793 C.3     1  UNL1        0.0211
     14 C         140.7444  142.5691  167.5636 C.3     1  UNL1        0.0072
     15 H         140.0426  140.8890  171.4349 H       1  UNL1        0.1233
@<TRIPOS>BOND
     1     1     2    1
     2     2     3   ar
     3     3     4   ar
     4     4     5   ar
     5     5     9    1
     6     9    10    1
     7    10    11    1
     8    11    12    1
     9    12    13    1
    10    13    14    1
    11     5     6   ar
    12     6     7   ar
    13     7     8    1
    14     7     2   ar
    15    13     9    1
    16    14     9    1
    17    11    15    1
@<TRIPOS>MOLECULE
*****
 15 17 0 0 0
SMALL
GASTEIGER

@<TRIPOS>ATOM
      1 CL        140.7469  143.7956  169.8364 Cl      1  UNL1       -0.0814
      2 C         140.4721  142.6579  168.8983 C.ar    1  UNL1        0.0682
      3 C         140.3629  142.9113  167.4239 C.ar    1  UNL1        0.0119
      4 C         140.0881  141.7736  166.4857 C.ar    1  UNL1       -0.0033
      5 C         139.9225  140.3825  167.0220 C.ar    1  UNL1       -0.0206
      6 C         140.0317  140.1292  168.4963 C.ar    1  UNL1        0.0080
      7 C         140.3065  141.2669  169.4345 C.ar    1  UNL1        0.0679
      8 CL        140.4157  141.0135  170.9090 Cl      1  UNL1       -0.0814
      9 C         139.6477  139.2448  166.0838 C.3     1  UNL1        0.0348
     10 C         141.0774  139.0162  165.6916 C.3     1  UNL1        0.0726
     11 N         141.1135  137.8804  164.7125 N.3     1  UNL1       -0.2972
     12 C         139.7061  137.4071  164.4996 C.3     1  UNL1        0.0689
     13 C         138.8002  138.2504  165.3471 C.3     1  UNL1        0.0211
     14 C         138.1606  139.2356  166.2799 C.3     1  UNL1        0.0072
     15 H         141.6818  137.1199  165.0854 H       1  UNL1        0.1233
@<TRIPOS>BOND
     1     1     2    1
     2     2     3   ar
     3     3     4   ar
     4     4     5   ar
     5     5     9    1
     6     9    10    1
     7    10    11    1
     8    11    12    1
     9    12    13    1
    10    13    14    1
    11     5     6   ar
    12     6     7   ar
    13     7     8    1
    14     7     2   ar
    15    13     9    1
    16    14     9    1
    17    11    15    1
@<TRIPOS>MOLECULE
*****
 15 17 0 0 0
SMALL
GASTEIGER

@<TRIPOS>ATOM
      1 CL        142.6700  144.1506  163.2089 Cl      1  UNL1       -0.0814
      2 C         142.0791  143.5825  164.4652 C.ar    1  UNL1        0.0682
      3 C         140.6321  143.8143  164.7850 C.ar    1  UNL1        0.0119
      4 C         140.0412  143.2463  166.0412 C.ar    1  UNL1       -0.0033
      5 C         140.8974  142.4464  166.9777 C.ar    1  UNL1       -0.0206
      6 C         142.3445  142.2146  166.6580 C.ar    1  UNL1        0.0080
      7 C         142.9353  142.7827  165.4017 C.ar    1  UNL1        0.0679
      8 CL        144.3825  142.5508  165.0820 Cl      1  UNL1       -0.0814
      9 C         140.3066  141.8783  168.2340 C.3     1  UNL1        0.0348
     10 C         139.8646  140.5801  167.6263 C.3     1  UNL1        0.0726
     11 N         139.2072  139.7654  168.7006 N.3     1  UNL1       -0.2972
     12 C         139.2428  140.5602  169.9722 C.3     1  UNL1        0.0689
     13 C         139.9223  141.8660  169.6838 C.3     1  UNL1        0.0211
     14 C         140.6250  143.0578  169.1043 C.3     1  UNL1        0.0072
     15 H         139.7112  138.8877  168.8267 H       1  UNL1        0.1233
@<TRIPOS>BOND
     1     1     2    1
     2     2     3   ar
     3     3     4   ar
     4     4     5   ar
     5     5     9    1
     6     9    10    1
     7    10    11    1
     8    11    12    1
     9    12    13    1
    10    13    14    1
    11     5     6   ar
    12     6     7   ar
    13     7     8    1
    14     7     2   ar
    15    13     9    1
    16    14     9    1
    17    11    15    1
@<TRIPOS>MOLECULE
*****
 15 17 0 0 0
SMALL
GASTEIGER

@<TRIPOS>ATOM
      1 CL        144.7262  139.3619  163.9392 Cl      1  UNL1       -0.0814
      2 C         143.9582  140.1252  164.9772 C.ar    1  UNL1        0.0682
      3 C         143.1069  139.3915  165.9706 C.ar    1  UNL1        0.0119
      4 C         142.3389  140.1548  167.0087 C.ar    1  UNL1       -0.0033
      5 C         142.4222  141.6518  167.0533 C.ar    1  UNL1       -0.0206
      6 C         143.2735  142.3855  166.0599 C.ar    1  UNL1        0.0080
      7 C         144.0415  141.6222  165.0219 C.ar    1  UNL1        0.0679
      8 CL        144.8929  142.3560  164.0284 Cl      1  UNL1       -0.0814
      9 C         141.6542  142.4151  168.0914 C.3     1  UNL1        0.0348
     10 C         142.7538  142.4425  169.1113 C.3     1  UNL1        0.0726
     11 N         142.2492  143.1781  170.3172 N.3     1  UNL1       -0.2972
     12 C         140.8378  143.6054  170.0426 C.3     1  UNL1        0.0689
     13 C         140.4701  143.1339  168.6669 C.3     1  UNL1        0.0211
     14 C         140.3941  142.5473  167.2884 C.3     1  UNL1        0.0072
     15 H         142.8313  143.9974  170.4915 H       1  UNL1        0.1233
@<TRIPOS>BOND
     1     1     2    1
     2     2     3   ar
     3     3     4   ar
     4     4     5   ar
     5     5     9    1
     6     9    10    1
     7    10    11    1
     8    11    12    1
     9    12    13    1
    10    13    14    1
    11     5     6   ar
    12     6     7   ar
    13     7     8    1
    14     7     2   ar
    15    13     9    1
    16    14     9    1
    17    11    15    1
@<TRIPOS>MOLECULE
*****
 15 17 0 0 0
SMALL
GASTEIGER

@<TRIPOS>ATOM
      1 CL        145.0949  140.6292  163.5581 Cl      1  UNL1       -0.0814
      2 C         144.1747  140.5111  164.7368 C.ar    1  UNL1        0.0682
      3 C         143.7528  139.1574  165.2263 C.ar    1  UNL1        0.0119
      4 C         142.8327  139.0393  166.4050 C.ar    1  UNL1       -0.0033
      5 C         142.3344  140.2749  167.0943 C.ar    1  UNL1       -0.0206
      6 C         142.7563  141.6285  166.6048 C.ar    1  UNL1        0.0080
      7 C         143.6765  141.7466  165.4261 C.ar    1  UNL1        0.0679
      8 CL        144.0984  143.1003  164.9367 Cl      1  UNL1       -0.0814
      9 C         141.4143  140.1568  168.2730 C.3     1  UNL1        0.0348
     10 C         142.4936  139.9540  169.2948 C.3     1  UNL1        0.0726
     11 N         141.8394  139.7986  170.6356 N.3     1  UNL1       -0.2972
     12 C         140.3556  139.9054  170.4425 C.3     1  UNL1        0.0689
     13 C         140.0930  140.1268  168.9824 C.3     1  UNL1        0.0211
     14 C         140.1426  140.3349  167.4977 C.3     1  UNL1        0.0072
     15 H         142.1604  140.5345  171.2648 H       1  UNL1        0.1233
@<TRIPOS>BOND
     1     1     2    1
     2     2     3   ar
     3     3     4   ar
     4     4     5   ar
     5     5     9    1
     6     9    10    1
     7    10    11    1
     8    11    12    1
     9    12    13    1
    10    13    14    1
    11     5     6   ar
    12     6     7   ar
    13     7     8    1
    14     7     2   ar
    15    13     9    1
    16    14     9    1
    17    11    15    1
@<TRIPOS>MOLECULE
*****
 15 17 0 0 0
SMALL
GASTEIGER

@<TRIPOS>ATOM
      1 CL        138.4673  139.2511  164.7997 Cl      1  UNL1       -0.0814
      2 C         139.2184  140.0066  165.8557 C.ar    1  UNL1        0.0682
      3 C         139.1179  139.5873  167.2924 C.ar    1  UNL1        0.0119
      4 C         139.8690  140.3427  168.3484 C.ar    1  UNL1       -0.0033
      5 C         140.7205  141.5174  167.9678 C.ar    1  UNL1       -0.0206
      6 C         140.8210  141.9367  166.5311 C.ar    1  UNL1        0.0080
      7 C         140.0699  141.1812  165.4751 C.ar    1  UNL1        0.0679
      8 CL        140.1704  141.6006  164.0384 Cl      1  UNL1       -0.0814
      9 C         141.4716  142.2728  169.0238 C.3     1  UNL1        0.0348
     10 C         142.6807  141.3851  169.0216 C.3     1  UNL1        0.0726
     11 N         143.6518  141.9218  170.0310 N.3     1  UNL1       -0.2972
     12 C         143.0428  143.1414  170.6571 C.3     1  UNL1        0.0689
     13 C         141.6954  143.3583  170.0346 C.3     1  UNL1        0.0211
     14 C         140.4195  143.3185  169.2468 C.3     1  UNL1        0.0072
     15 H         144.5277  142.1697  169.5710 H       1  UNL1        0.1233
@<TRIPOS>BOND
     1     1     2    1
     2     2     3   ar
     3     3     4   ar
     4     4     5   ar
     5     5     9    1
     6     9    10    1
     7    10    11    1
     8    11    12    1
     9    12    13    1
    10    13    14    1
    11     5     6   ar
    12     6     7   ar
    13     7     8    1
    14     7     2   ar
    15    13     9    1
    16    14     9    1
    17    11    15    1
