@<TRIPOS>MOLECULE
*****
 44 48 0 0 0
SMALL
GASTEIGER

@<TRIPOS>ATOM
      1 C         141.2799  140.9187  162.5517 C.3     1  UNL1        0.0807
      2 C         141.3267  140.7389  164.0402 C.ar    1  UNL1        0.0375
      3 C         140.9551  141.8761  164.9450 C.ar    1  UNL1        0.0023
      4 C         141.0019  141.6963  166.4335 C.ar    1  UNL1        0.0183
      5 C         140.6304  142.8335  167.3384 C.ar    1  UNL1        0.0118
      6 C         140.6771  142.6536  168.8268 C.ar    1  UNL1        0.0685
      7 C         141.0954  141.3366  169.4104 C.ar    1  UNL1        0.0118
      8 C         141.4669  140.1995  168.5055 C.ar    1  UNL1        0.0199
      9 C         141.4201  140.3793  167.0171 C.ar    1  UNL1        0.0844
     10 N         141.7917  139.2421  166.1122 N.ar    1  UNL1       -0.2119
     11 C         141.7449  139.4219  164.6238 C.ar    1  UNL1        0.2211
     12 C         140.3056  143.7908  169.7317 C.1     1  UNL1        0.1004
     13 N         139.9341  144.9280  170.6366 N.1     1  UNL1       -0.1908
     14 O         142.1164  138.2847  163.7188 O.3     1  UNL1       -0.4563
     15 C         141.1013  137.2338  163.3796 C.3     1  UNL1        0.2542
     16 C         140.1138  140.3920  161.7689 C.ar    1  UNL1        0.0215
     17 C         138.7139  140.6716  162.2292 C.ar    1  UNL1       -0.0007
     18 C         137.5477  140.1449  161.4463 C.ar    1  UNL1        0.0030
     19 C         137.7816  139.3387  160.2032 C.ar    1  UNL1        0.0402
     20 C         139.1817  139.0591  159.7430 C.ar    1  UNL1        0.1761
     21 C         140.3477  139.5858  160.5258 C.ar    1  UNL1        0.1728
     22 O         141.6052  139.1524  159.8324 O.3     1  UNL1       -0.4349
     23 C         141.2163  138.3578  158.6210 C.3     1  UNL1        0.4294
     24 O         139.7184  138.3002  158.5658 O.3     1  UNL1       -0.4346
     25 C         142.3993  141.6252  161.8461 C.3     1  UNL1        0.1162
     26 O         143.3227  140.4895  162.1739 O.3     1  UNL1       -0.3820
     27 H         144.2042  140.6754  161.8144 H       1  UNL1        0.2107
     28 C         140.2788  144.2515  159.7590 C.ar    1  UNL1        0.2272
     29 C         141.2022  143.1158  160.0868 C.ar    1  UNL1        0.0559
     30 C         141.4759  142.7609  161.5183 C.ar    1  UNL1        0.0117
     31 C         140.8261  143.5417  162.6219 C.ar    1  UNL1        0.0560
     32 C         139.9027  144.6774  162.2941 C.ar    1  UNL1        0.2319
     33 N         139.6291  145.0323  160.8627 N.ar    1  UNL1       -0.1766
     34 C         140.3969  145.9553  157.8011 C.3     1  UNL1        0.2542
     35 O         140.0052  144.6064  158.3275 O.3     1  UNL1       -0.4561
     36 O         139.2529  145.4582  163.3979 O.3     1  UNL1       -0.4067
     37 C         138.6350  144.7405  164.5611 C.3     1  UNL1        0.5097
     38 F         138.6795  145.3529  165.9296 F       1  UNL1       -0.1549
     39 F         137.9727  143.4104  164.3557 F       1  UNL1       -0.1549
     40 C         143.5187  142.3317  161.1405 C.3     1  UNL1        0.0491
     41 C         144.4847  143.1729  161.9209 C.3     1  UNL1        0.0750
     42 N         144.8364  142.7989  163.3303 N.3     1  UNL1       -0.2702
     43 C         144.1856  143.5097  164.4796 C.3     1  UNL1        0.0897
     44 C         145.8390  141.7140  163.5903 C.3     1  UNL1        0.0897
@<TRIPOS>BOND
     1    34    35    1
     2    35    28    1
     3    28    29   ar
     4    29    30   ar
     5    30    25    1
     6    25    26    1
     7    25    40    1
     8    40    41    1
     9    41    42    1
    10    42    43    1
    11    42    44    1
    12    25     1    1
    13     1     2    1
    14     2     3   ar
    15     3     4   ar
    16     4     5   ar
    17     5     6   ar
    18     6    12    1
    19    12    13    3
    20     6     7   ar
    21     7     8   ar
    22     8     9   ar
    23     9    10   ar
    24    10    11   ar
    25    11    14    1
    26    14    15    1
    27     1    16    1
    28    16    17   ar
    29    17    18   ar
    30    18    19   ar
    31    19    20   ar
    32    20    21   ar
    33    21    22    1
    34    22    23    1
    35    23    24    1
    36    30    31   ar
    37    31    32   ar
    38    32    36    1
    39    36    37    1
    40    37    38    1
    41    37    39    1
    42    32    33   ar
    43    33    28   ar
    44    11     2   ar
    45    21    16   ar
    46     9     4   ar
    47    24    20    1
    48    26    27    1
@<TRIPOS>MOLECULE
*****
 44 48 0 0 0
SMALL
GASTEIGER

@<TRIPOS>ATOM
      1 C         141.4814  140.6676  163.1861 C.3     1  UNL1        0.0807
      2 C         141.7102  140.5196  164.6612 C.ar    1  UNL1        0.0375
      3 C         140.9129  141.3415  165.6300 C.ar    1  UNL1        0.0023
      4 C         141.1417  141.1935  167.1051 C.ar    1  UNL1        0.0183
      5 C         140.3443  142.0154  168.0739 C.ar    1  UNL1        0.0118
      6 C         140.5731  141.8674  169.5489 C.ar    1  UNL1        0.0685
      7 C         141.5993  140.8974  170.0551 C.ar    1  UNL1        0.0118
      8 C         142.3966  140.0755  169.0862 C.ar    1  UNL1        0.0199
      9 C         142.1678  140.2236  167.6112 C.ar    1  UNL1        0.0844
     10 N         142.9652  139.4016  166.6423 N.ar    1  UNL1       -0.2119
     11 C         142.7364  139.5497  165.1673 C.ar    1  UNL1        0.2211
     12 C         139.7758  142.6893  170.5178 C.1     1  UNL1        0.1004
     13 N         138.9784  143.5111  171.4867 N.1     1  UNL1       -0.1908
     14 O         143.5337  138.7278  164.1984 O.3     1  UNL1       -0.4563
     15 C         144.9356  139.1311  163.8488 C.3     1  UNL1        0.2542
     16 C         142.4757  141.4104  162.3437 C.ar    1  UNL1        0.0215
     17 C         143.0479  140.7664  161.1158 C.ar    1  UNL1       -0.0007
     18 C         144.0422  141.5091  160.2733 C.ar    1  UNL1        0.0030
     19 C         144.4643  142.8959  160.6589 C.ar    1  UNL1        0.0402
     20 C         143.8921  143.5399  161.8868 C.ar    1  UNL1        0.1761
     21 C         142.8978  142.7972  162.7292 C.ar    1  UNL1        0.1728
     22 O         142.5082  143.6828  163.8755 O.3     1  UNL1       -0.4349
     23 C         143.2617  144.9728  163.7415 C.3     1  UNL1        0.4294
     24 O         144.1170  144.8845  162.5124 O.3     1  UNL1       -0.4346
     25 C         140.2583  140.0729  162.5534 C.3     1  UNL1        0.1162
     26 O         140.8094  138.6966  162.7818 O.3     1  UNL1       -0.3820
     27 H         140.1825  138.0373  162.4453 H       1  UNL1        0.2107
     28 C         139.3136  143.4838  160.7582 C.ar    1  UNL1        0.2272
     29 C         139.8647  142.1076  160.9866 C.ar    1  UNL1        0.0559
     30 C         139.7072  141.4491  162.3251 C.ar    1  UNL1        0.0117
     31 C         138.9985  142.1670  163.4352 C.ar    1  UNL1        0.0560
     32 C         138.4474  143.5433  163.2068 C.ar    1  UNL1        0.2319
     33 N         138.6049  144.2017  161.8683 N.ar    1  UNL1       -0.1766
     34 C         139.4462  143.3143  158.1690 C.3     1  UNL1        0.2542
     35 O         139.4712  144.1422  159.4196 O.3     1  UNL1       -0.4561
     36 O         137.7387  144.2611  164.3170 O.3     1  UNL1       -0.4067
     37 C         138.5189  144.8041  165.4774 C.3     1  UNL1        0.5097
     38 F         137.8660  145.7454  166.4455 F       1  UNL1       -0.1549
     39 F         139.9523  144.4056  165.6695 F       1  UNL1       -0.1549
     40 C         139.0352  139.4781  161.9208 C.3     1  UNL1        0.0491
     41 C         139.1751  138.4240  160.8629 C.3     1  UNL1        0.0750
     42 N         139.8012  138.7646  159.5430 N.3     1  UNL1       -0.2702
     43 C         139.0244  139.5434  158.5232 C.3     1  UNL1        0.0897
     44 C         141.2039  138.3263  159.2429 C.3     1  UNL1        0.0897
@<TRIPOS>BOND
     1    34    35    1
     2    35    28    1
     3    28    29   ar
     4    29    30   ar
     5    30    25    1
     6    25    26    1
     7    25    40    1
     8    40    41    1
     9    41    42    1
    10    42    43    1
    11    42    44    1
    12    25     1    1
    13     1     2    1
    14     2     3   ar
    15     3     4   ar
    16     4     5   ar
    17     5     6   ar
    18     6    12    1
    19    12    13    3
    20     6     7   ar
    21     7     8   ar
    22     8     9   ar
    23     9    10   ar
    24    10    11   ar
    25    11    14    1
    26    14    15    1
    27     1    16    1
    28    16    17   ar
    29    17    18   ar
    30    18    19   ar
    31    19    20   ar
    32    20    21   ar
    33    21    22    1
    34    22    23    1
    35    23    24    1
    36    30    31   ar
    37    31    32   ar
    38    32    36    1
    39    36    37    1
    40    37    38    1
    41    37    39    1
    42    32    33   ar
    43    33    28   ar
    44    11     2   ar
    45    21    16   ar
    46     9     4   ar
    47    24    20    1
    48    26    27    1
@<TRIPOS>MOLECULE
*****
 44 48 0 0 0
SMALL
GASTEIGER

@<TRIPOS>ATOM
      1 C         142.1000  141.2405  162.8010 C.3     1  UNL1        0.0807
      2 C         142.3635  141.5171  164.2516 C.ar    1  UNL1        0.0375
      3 C         141.5212  140.8611  165.3053 C.ar    1  UNL1        0.0023
      4 C         141.7847  141.1377  166.7559 C.ar    1  UNL1        0.0183
      5 C         140.9424  140.4817  167.8095 C.ar    1  UNL1        0.0118
      6 C         141.2058  140.7583  169.2600 C.ar    1  UNL1        0.0685
      7 C         142.3116  141.6909  169.6569 C.ar    1  UNL1        0.0118
      8 C         143.1539  142.3469  168.6033 C.ar    1  UNL1        0.0199
      9 C         142.8904  142.0703  167.1527 C.ar    1  UNL1        0.0844
     10 N         143.7327  142.7263  166.0990 N.ar    1  UNL1       -0.2119
     11 C         143.4693  142.4497  164.6485 C.ar    1  UNL1        0.2211
     12 C         140.3635  140.1023  170.3137 C.1     1  UNL1        0.1004
     13 N         139.5213  139.4463  171.3673 N.1     1  UNL1       -0.1908
     14 O         144.3116  143.1057  163.5948 O.3     1  UNL1       -0.4563
     15 C         144.0632  144.5366  163.2194 C.3     1  UNL1        0.2542
     16 C         141.4087  142.2682  161.9551 C.ar    1  UNL1        0.0215
     17 C         142.1092  142.8548  160.7655 C.ar    1  UNL1       -0.0007
     18 C         141.4178  143.8826  159.9194 C.ar    1  UNL1        0.0030
     19 C         140.0259  144.3238  160.2631 C.ar    1  UNL1        0.0402
     20 C         139.3254  143.7371  161.4527 C.ar    1  UNL1        0.1761
     21 C         140.0168  142.7094  162.2987 C.ar    1  UNL1        0.1728
     22 O         139.0815  142.3120  163.4020 O.3     1  UNL1       -0.4349
     23 C         137.8122  143.0941  163.2379 C.3     1  UNL1        0.4294
     24 O         137.9629  143.9749  162.0332 O.3     1  UNL1       -0.4346
     25 C         142.5280  139.9361  162.1965 C.3     1  UNL1        0.1162
     26 O         143.9501  140.4128  162.1746 O.3     1  UNL1       -0.3820
     27 H         144.5175  139.7203  161.8014 H       1  UNL1        0.2107
     28 C         138.8313  139.1099  161.0126 C.ar    1  UNL1        0.2272
     29 C         140.2534  139.5866  160.9908 C.ar    1  UNL1        0.0559
     30 C         141.1059  139.4594  162.2183 C.ar    1  UNL1        0.0117
     31 C         140.5364  138.8556  163.4677 C.ar    1  UNL1        0.0560
     32 C         139.1143  138.3789  163.4895 C.ar    1  UNL1        0.2319
     33 N         138.2618  138.5060  162.2620 N.ar    1  UNL1       -0.1766
     34 C         138.0847  140.4590  158.9215 C.3     1  UNL1        0.2542
     35 O         137.9787  139.2370  159.7850 O.3     1  UNL1       -0.4561
     36 O         138.5448  137.7751  164.7390 O.3     1  UNL1       -0.4067
     37 C         138.1607  138.6566  165.8903 C.3     1  UNL1        0.5097
     38 F         138.3095  140.1449  165.7776 F       1  UNL1       -0.1549
     39 F         137.6277  138.0497  167.1543 F       1  UNL1       -0.1549
     40 C         142.9559  138.6318  161.5919 C.3     1  UNL1        0.0491
     41 C         143.9563  138.6154  160.4744 C.3     1  UNL1        0.0750
     42 N         143.5602  139.0857  159.1062 N.3     1  UNL1       -0.2702
     43 C         142.7104  138.2137  158.2303 C.3     1  UNL1        0.0897
     44 C         144.0138  140.4281  158.6140 C.3     1  UNL1        0.0897
@<TRIPOS>BOND
     1    34    35    1
     2    35    28    1
     3    28    29   ar
     4    29    30   ar
     5    30    25    1
     6    25    26    1
     7    25    40    1
     8    40    41    1
     9    41    42    1
    10    42    43    1
    11    42    44    1
    12    25     1    1
    13     1     2    1
    14     2     3   ar
    15     3     4   ar
    16     4     5   ar
    17     5     6   ar
    18     6    12    1
    19    12    13    3
    20     6     7   ar
    21     7     8   ar
    22     8     9   ar
    23     9    10   ar
    24    10    11   ar
    25    11    14    1
    26    14    15    1
    27     1    16    1
    28    16    17   ar
    29    17    18   ar
    30    18    19   ar
    31    19    20   ar
    32    20    21   ar
    33    21    22    1
    34    22    23    1
    35    23    24    1
    36    30    31   ar
    37    31    32   ar
    38    32    36    1
    39    36    37    1
    40    37    38    1
    41    37    39    1
    42    32    33   ar
    43    33    28   ar
    44    11     2   ar
    45    21    16   ar
    46     9     4   ar
    47    24    20    1
    48    26    27    1
@<TRIPOS>MOLECULE
*****
 44 48 0 0 0
SMALL
GASTEIGER

@<TRIPOS>ATOM
      1 C         140.5000  140.6540  162.9974 C.3     1  UNL1        0.0807
      2 C         140.3325  140.5450  164.4840 C.ar    1  UNL1        0.0375
      3 C         141.1342  141.4259  165.3957 C.ar    1  UNL1        0.0023
      4 C         140.9667  141.3169  166.8824 C.ar    1  UNL1        0.0183
      5 C         141.7684  142.1979  167.7940 C.ar    1  UNL1        0.0118
      6 C         141.6009  142.0889  169.2806 C.ar    1  UNL1        0.0685
      7 C         140.6317  141.0989  169.8555 C.ar    1  UNL1        0.0118
      8 C         139.8300  140.2179  168.9439 C.ar    1  UNL1        0.0199
      9 C         139.9975  140.3269  167.4573 C.ar    1  UNL1        0.0844
     10 N         139.1958  139.4459  166.5456 N.ar    1  UNL1       -0.2119
     11 C         139.3633  139.5549  165.0590 C.ar    1  UNL1        0.2211
     12 C         142.4026  142.9699  170.1923 C.1     1  UNL1        0.1004
     13 N         143.2042  143.8509  171.1040 N.1     1  UNL1       -0.1908
     14 O         138.5616  138.6739  164.1473 O.3     1  UNL1       -0.4563
     15 C         139.1275  137.3657  163.6800 C.3     1  UNL1        0.2542
     16 C         141.4563  139.7465  162.2818 C.ar    1  UNL1        0.0215
     17 C         142.7666  139.3868  162.9171 C.ar    1  UNL1       -0.0007
     18 C         143.7230  138.4793  162.2016 C.ar    1  UNL1        0.0030
     19 C         143.3690  137.9317  160.8507 C.ar    1  UNL1        0.0402
     20 C         142.0586  138.2915  160.2154 C.ar    1  UNL1        0.1761
     21 C         141.1023  139.1989  160.9310 C.ar    1  UNL1        0.1728
     22 O         139.8929  139.3761  160.0615 O.3     1  UNL1       -0.4349
     23 C         140.1018  138.5782  158.8087 C.3     1  UNL1        0.4294
     24 O         141.4403  137.9078  158.9038 O.3     1  UNL1       -0.4346
     25 C         139.7111  141.6704  162.2263 C.3     1  UNL1        0.1162
     26 O         138.4622  140.8700  162.4489 O.3     1  UNL1       -0.3820
     27 H         137.7121  141.3172  162.0268 H       1  UNL1        0.2107
     28 C         142.7176  143.4957  160.3879 C.ar    1  UNL1        0.2272
     29 C         141.4686  142.6953  160.6105 C.ar    1  UNL1        0.0559
     30 C         140.9600  142.4708  162.0037 C.ar    1  UNL1        0.0117
     31 C         141.7004  143.0467  163.1742 C.ar    1  UNL1        0.0560
     32 C         142.9493  143.8471  162.9516 C.ar    1  UNL1        0.2319
     33 N         143.4579  144.0716  161.5584 N.ar    1  UNL1       -0.1766
     34 C         143.6101  142.5497  158.1388 C.3     1  UNL1        0.2542
     35 O         143.2261  143.7201  158.9947 O.3     1  UNL1       -0.4561
     36 O         143.6896  144.4231  164.1222 O.3     1  UNL1       -0.4067
     37 C         144.4396  143.5181  165.0542 C.3     1  UNL1        0.5097
     38 F         145.2910  144.1015  166.1426 F       1  UNL1       -0.1549
     39 F         144.3381  142.0297  164.8977 F       1  UNL1       -0.1549
     40 C         138.9223  142.6869  161.4552 C.3     1  UNL1        0.0491
     41 C         138.1025  143.7101  162.1838 C.3     1  UNL1        0.0750
     42 N         138.7803  144.8063  162.9511 N.3     1  UNL1       -0.2702
     43 C         138.7394  144.8084  164.4505 C.3     1  UNL1        0.0897
     44 C         139.4992  145.9005  162.2189 C.3     1  UNL1        0.0897
@<TRIPOS>BOND
     1    34    35    1
     2    35    28    1
     3    28    29   ar
     4    29    30   ar
     5    30    25    1
     6    25    26    1
     7    25    40    1
     8    40    41    1
     9    41    42    1
    10    42    43    1
    11    42    44    1
    12    25     1    1
    13     1     2    1
    14     2     3   ar
    15     3     4   ar
    16     4     5   ar
    17     5     6   ar
    18     6    12    1
    19    12    13    3
    20     6     7   ar
    21     7     8   ar
    22     8     9   ar
    23     9    10   ar
    24    10    11   ar
    25    11    14    1
    26    14    15    1
    27     1    16    1
    28    16    17   ar
    29    17    18   ar
    30    18    19   ar
    31    19    20   ar
    32    20    21   ar
    33    21    22    1
    34    22    23    1
    35    23    24    1
    36    30    31   ar
    37    31    32   ar
    38    32    36    1
    39    36    37    1
    40    37    38    1
    41    37    39    1
    42    32    33   ar
    43    33    28   ar
    44    11     2   ar
    45    21    16   ar
    46     9     4   ar
    47    24    20    1
    48    26    27    1
@<TRIPOS>MOLECULE
*****
 44 48 0 0 0
SMALL
GASTEIGER

@<TRIPOS>ATOM
      1 C         141.4163  142.2064  162.4346 C.3     1  UNL1        0.0807
      2 C         141.8859  142.1775  163.8590 C.ar    1  UNL1        0.0375
      3 C         141.0365  141.5359  164.9158 C.ar    1  UNL1        0.0023
      4 C         141.5061  141.5071  166.3402 C.ar    1  UNL1        0.0183
      5 C         140.6567  140.8655  167.3970 C.ar    1  UNL1        0.0118
      6 C         141.1263  140.8367  168.8213 C.ar    1  UNL1        0.0685
      7 C         142.4452  141.4494  169.1888 C.ar    1  UNL1        0.0118
      8 C         143.2946  142.0909  168.1319 C.ar    1  UNL1        0.0199
      9 C         142.8250  142.1198  166.7076 C.ar    1  UNL1        0.0844
     10 N         143.6744  142.7613  165.6507 N.ar    1  UNL1       -0.2119
     11 C         143.2048  142.7902  164.2264 C.ar    1  UNL1        0.2211
     12 C         140.2769  140.1951  169.8783 C.1     1  UNL1        0.1004
     13 N         139.4276  139.5536  170.9351 N.1     1  UNL1       -0.1908
     14 O         144.0542  143.4317  163.1695 O.3     1  UNL1       -0.4563
     15 C         143.9675  144.9104  162.9329 C.3     1  UNL1        0.2542
     16 C         142.3100  141.7033  161.3400 C.ar    1  UNL1        0.0215
     17 C         142.6235  142.5812  160.1648 C.ar    1  UNL1       -0.0007
     18 C         143.5172  142.0782  159.0701 C.ar    1  UNL1        0.0030
     19 C         144.0973  140.6973  159.1506 C.ar    1  UNL1        0.0402
     20 C         143.7838  139.8194  160.3258 C.ar    1  UNL1        0.1761
     21 C         142.8902  140.3224  161.4204 C.ar    1  UNL1        0.1728
     22 O         142.7604  139.2376  162.4482 O.3     1  UNL1       -0.4349
     23 C         143.5739  138.0641  161.9887 C.3     1  UNL1        0.4294
     24 O         144.2064  138.4237  160.6769 O.3     1  UNL1       -0.4346
     25 C         140.0531  142.7383  162.1050 C.3     1  UNL1        0.1162
     26 O         140.4830  144.1085  162.5382 O.3     1  UNL1       -0.3820
     27 H         139.7445  144.7282  162.4306 H       1  UNL1        0.2107
     28 C         138.9555  139.7107  159.7857 C.ar    1  UNL1        0.2272
     29 C         139.3854  141.0810  160.2189 C.ar    1  UNL1        0.0559
     30 C         139.6232  141.3680  161.6718 C.ar    1  UNL1        0.0117
     31 C         139.4311  140.2849  162.6915 C.ar    1  UNL1        0.0560
     32 C         139.0012  138.9147  162.2583 C.ar    1  UNL1        0.2319
     33 N         138.7634  138.6276  160.8054 N.ar    1  UNL1       -0.1766
     34 C         138.3012  140.5291  157.4082 C.3     1  UNL1        0.2542
     35 O         138.7177  139.4237  158.3327 O.3     1  UNL1       -0.4561
     36 O         138.8091  137.8315  163.2781 O.3     1  UNL1       -0.4067
     37 C         139.2388  138.0535  164.6980 C.3     1  UNL1        0.5097
     38 F         140.6967  138.1719  165.0306 F       1  UNL1       -0.1549
     39 F         138.2106  138.1571  165.7853 F       1  UNL1       -0.1549
     40 C         138.6899  143.2702  161.7753 C.3     1  UNL1        0.0491
     41 C         137.9564  144.1212  162.7692 C.3     1  UNL1        0.0750
     42 N         138.0009  143.7773  164.2285 N.3     1  UNL1       -0.2702
     43 C         138.4835  144.7907  165.2235 C.3     1  UNL1        0.0897
     44 C         137.5627  142.4200  164.6929 C.3     1  UNL1        0.0897
@<TRIPOS>BOND
     1    34    35    1
     2    35    28    1
     3    28    29   ar
     4    29    30   ar
     5    30    25    1
     6    25    26    1
     7    25    40    1
     8    40    41    1
     9    41    42    1
    10    42    43    1
    11    42    44    1
    12    25     1    1
    13     1     2    1
    14     2     3   ar
    15     3     4   ar
    16     4     5   ar
    17     5     6   ar
    18     6    12    1
    19    12    13    3
    20     6     7   ar
    21     7     8   ar
    22     8     9   ar
    23     9    10   ar
    24    10    11   ar
    25    11    14    1
    26    14    15    1
    27     1    16    1
    28    16    17   ar
    29    17    18   ar
    30    18    19   ar
    31    19    20   ar
    32    20    21   ar
    33    21    22    1
    34    22    23    1
    35    23    24    1
    36    30    31   ar
    37    31    32   ar
    38    32    36    1
    39    36    37    1
    40    37    38    1
    41    37    39    1
    42    32    33   ar
    43    33    28   ar
    44    11     2   ar
    45    21    16   ar
    46     9     4   ar
    47    24    20    1
    48    26    27    1
@<TRIPOS>MOLECULE
*****
 44 48 0 0 0
SMALL
GASTEIGER

@<TRIPOS>ATOM
      1 C         141.8090  141.5905  162.0941 C.3     1  UNL1        0.0807
      2 C         142.0123  141.7885  163.5670 C.ar    1  UNL1        0.0375
      3 C         141.0186  141.2315  164.5429 C.ar    1  UNL1        0.0023
      4 C         141.2219  141.4295  166.0158 C.ar    1  UNL1        0.0183
      5 C         140.2282  140.8726  166.9916 C.ar    1  UNL1        0.0118
      6 C         140.4315  141.0706  168.4645 C.ar    1  UNL1        0.0685
      7 C         141.6286  141.8256  168.9616 C.ar    1  UNL1        0.0118
      8 C         142.6223  142.3825  167.9857 C.ar    1  UNL1        0.0199
      9 C         142.4189  142.1845  166.5129 C.ar    1  UNL1        0.0844
     10 N         143.4127  142.7415  165.5370 N.ar    1  UNL1       -0.2119
     11 C         143.2093  142.5435  164.0641 C.ar    1  UNL1        0.2211
     12 C         139.4378  140.5136  169.4404 C.1     1  UNL1        0.1004
     13 N         138.4441  139.9567  170.4163 N.1     1  UNL1       -0.1908
     14 O         144.2031  143.1005  163.0882 O.3     1  UNL1       -0.4563
     15 C         144.2167  144.5701  162.7880 C.3     1  UNL1        0.2542
     16 C         141.6317  142.7781  161.1951 C.ar    1  UNL1        0.0215
     17 C         142.3956  142.8644  159.9072 C.ar    1  UNL1       -0.0007
     18 C         142.2183  144.0521  159.0081 C.ar    1  UNL1        0.0030
     19 C         141.2770  145.1533  159.3971 C.ar    1  UNL1        0.0402
     20 C         140.5131  145.0669  160.6852 C.ar    1  UNL1        0.1761
     21 C         140.6904  143.8793  161.5841 C.ar    1  UNL1        0.1728
     22 O         139.8088  144.0696  162.7827 O.3     1  UNL1       -0.4349
     23 C         139.0867  145.3747  162.6245 C.3     1  UNL1        0.4294
     24 O         139.5220  145.9911  161.3281 O.3     1  UNL1       -0.4346
     25 C         141.7830  140.2049  161.5202 C.3     1  UNL1        0.1162
     26 O         143.2218  140.0198  161.9018 O.3     1  UNL1       -0.3820
     27 H         143.5161  139.1352  161.6341 H       1  UNL1        0.2107
     28 C         138.4632  140.3111  159.3482 C.ar    1  UNL1        0.2272
     29 C         139.9020  140.1261  159.7298 C.ar    1  UNL1        0.0559
     30 C         140.3442  140.3899  161.1386 C.ar    1  UNL1        0.0117
     31 C         139.3476  140.8388  162.1658 C.ar    1  UNL1        0.0560
     32 C         137.9088  141.0238  161.7842 C.ar    1  UNL1        0.2319
     33 N         137.4666  140.7600  160.3754 N.ar    1  UNL1       -0.1766
     34 C         137.2271  141.0806  157.1964 C.3     1  UNL1        0.2542
     35 O         138.0210  140.0472  157.9393 O.3     1  UNL1       -0.4561
     36 O         136.9121  141.4727  162.8115 O.3     1  UNL1       -0.4067
     37 C         137.3528  141.7283  164.2224 C.3     1  UNL1        0.5097
     38 F         137.4249  143.1332  164.7427 F       1  UNL1       -0.1549
     39 F         137.7213  140.5788  165.1129 F       1  UNL1       -0.1549
     40 C         141.7570  138.8192  160.9462 C.3     1  UNL1        0.0491
     41 C         141.9000  137.6305  161.8497 C.3     1  UNL1        0.0750
     42 N         141.2821  137.6484  163.2164 N.3     1  UNL1       -0.2702
     43 C         139.8001  137.4766  163.3718 C.3     1  UNL1        0.0897
     44 C         142.1462  137.8383  164.4277 C.3     1  UNL1        0.0897
@<TRIPOS>BOND
     1    34    35    1
     2    35    28    1
     3    28    29   ar
     4    29    30   ar
     5    30    25    1
     6    25    26    1
     7    25    40    1
     8    40    41    1
     9    41    42    1
    10    42    43    1
    11    42    44    1
    12    25     1    1
    13     1     2    1
    14     2     3   ar
    15     3     4   ar
    16     4     5   ar
    17     5     6   ar
    18     6    12    1
    19    12    13    3
    20     6     7   ar
    21     7     8   ar
    22     8     9   ar
    23     9    10   ar
    24    10    11   ar
    25    11    14    1
    26    14    15    1
    27     1    16    1
    28    16    17   ar
    29    17    18   ar
    30    18    19   ar
    31    19    20   ar
    32    20    21   ar
    33    21    22    1
    34    22    23    1
    35    23    24    1
    36    30    31   ar
    37    31    32   ar
    38    32    36    1
    39    36    37    1
    40    37    38    1
    41    37    39    1
    42    32    33   ar
    43    33    28   ar
    44    11     2   ar
    45    21    16   ar
    46     9     4   ar
    47    24    20    1
    48    26    27    1
@<TRIPOS>MOLECULE
*****
 44 48 0 0 0
SMALL
GASTEIGER

@<TRIPOS>ATOM
      1 C         141.5309  141.1145  162.4405 C.3     1  UNL1        0.0807
      2 C         141.8262  140.6608  163.8395 C.ar    1  UNL1        0.0375
      3 C         141.9829  141.6702  164.9379 C.ar    1  UNL1        0.0023
      4 C         142.2782  141.2165  166.3369 C.ar    1  UNL1        0.0183
      5 C         142.4349  142.2259  167.4353 C.ar    1  UNL1        0.0118
      6 C         142.7302  141.7722  168.8342 C.ar    1  UNL1        0.0685
      7 C         142.8688  140.3092  169.1346 C.ar    1  UNL1        0.0118
      8 C         142.7121  139.2998  168.0362 C.ar    1  UNL1        0.0199
      9 C         142.4168  139.7535  166.6373 C.ar    1  UNL1        0.0844
     10 N         142.2601  138.7441  165.5388 N.ar    1  UNL1       -0.2119
     11 C         141.9648  139.1978  164.1399 C.ar    1  UNL1        0.2211
     12 C         142.8869  142.7816  169.9327 C.1     1  UNL1        0.1004
     13 N         143.0436  143.7909  171.0312 N.1     1  UNL1       -0.1908
     14 O         141.8081  138.1884  163.0414 O.3     1  UNL1       -0.4563
     15 C         140.6145  137.2801  163.0222 C.3     1  UNL1        0.2542
     16 C         140.2312  140.7433  161.7903 C.ar    1  UNL1        0.0215
     17 C         138.9330  141.0943  162.4548 C.ar    1  UNL1       -0.0007
     18 C         137.6332  140.7231  161.8045 C.ar    1  UNL1        0.0030
     19 C         137.6316  140.0008  160.4899 C.ar    1  UNL1        0.0402
     20 C         138.9298  139.6498  159.8254 C.ar    1  UNL1        0.1761
     21 C         140.2296  140.0210  160.4756 C.ar    1  UNL1        0.1728
     22 O         141.3431  139.5464  159.5898 O.3     1  UNL1       -0.4349
     23 C         140.7316  138.8819  158.3922 C.3     1  UNL1        0.4294
     24 O         139.2400  138.9458  158.5378 O.3     1  UNL1       -0.4346
     25 C         142.5354  141.9394  161.6918 C.3     1  UNL1        0.1162
     26 O         143.4824  140.7762  161.6809 O.3     1  UNL1       -0.3820
     27 H         144.2990  141.0284  161.2220 H       1  UNL1        0.2107
     28 C         140.1404  144.8373  160.4204 C.ar    1  UNL1        0.2272
     29 C         141.0875  143.6741  160.4095 C.ar    1  UNL1        0.0559
     30 C         141.5883  143.1026  161.7027 C.ar    1  UNL1        0.0117
     31 C         141.1421  143.6942  163.0069 C.ar    1  UNL1        0.0560
     32 C         140.1951  144.8574  163.0178 C.ar    1  UNL1        0.2319
     33 N         139.6943  145.4289  161.7246 N.ar    1  UNL1       -0.1766
     34 C         140.4143  145.1914  157.8612 C.3     1  UNL1        0.2542
     35 O         139.6396  145.4088  159.1271 O.3     1  UNL1       -0.4561
     36 O         139.7489  145.4490  164.3220 O.3     1  UNL1       -0.4067
     37 C         138.6645  144.7828  165.1158 C.3     1  UNL1        0.5097
     38 F         138.0258  145.5038  166.2657 F       1  UNL1       -0.1549
     39 F         138.2188  143.3954  164.7598 F       1  UNL1       -0.1549
     40 C         143.5399  142.7643  160.9431 C.3     1  UNL1        0.0491
     41 C         144.4832  142.1057  159.9806 C.3     1  UNL1        0.0750
     42 N         144.0697  141.8882  158.5553 N.3     1  UNL1       -0.2702
     43 C         144.1992  140.5281  157.9360 C.3     1  UNL1        0.0897
     44 C         143.5266  143.0306  157.7492 C.3     1  UNL1        0.0897
@<TRIPOS>BOND
     1    34    35    1
     2    35    28    1
     3    28    29   ar
     4    29    30   ar
     5    30    25    1
     6    25    26    1
     7    25    40    1
     8    40    41    1
     9    41    42    1
    10    42    43    1
    11    42    44    1
    12    25     1    1
    13     1     2    1
    14     2     3   ar
    15     3     4   ar
    16     4     5   ar
    17     5     6   ar
    18     6    12    1
    19    12    13    3
    20     6     7   ar
    21     7     8   ar
    22     8     9   ar
    23     9    10   ar
    24    10    11   ar
    25    11    14    1
    26    14    15    1
    27     1    16    1
    28    16    17   ar
    29    17    18   ar
    30    18    19   ar
    31    19    20   ar
    32    20    21   ar
    33    21    22    1
    34    22    23    1
    35    23    24    1
    36    30    31   ar
    37    31    32   ar
    38    32    36    1
    39    36    37    1
    40    37    38    1
    41    37    39    1
    42    32    33   ar
    43    33    28   ar
    44    11     2   ar
    45    21    16   ar
    46     9     4   ar
    47    24    20    1
    48    26    27    1
@<TRIPOS>MOLECULE
*****
 44 48 0 0 0
SMALL
GASTEIGER

@<TRIPOS>ATOM
      1 C         141.0233  140.8894  162.7856 C.3     1  UNL1        0.0807
      2 C         141.2543  140.5653  164.2319 C.ar    1  UNL1        0.0375
      3 C         140.6238  141.4093  165.2997 C.ar    1  UNL1        0.0023
      4 C         140.8548  141.0851  166.7459 C.ar    1  UNL1        0.0183
      5 C         140.2244  141.9291  167.8137 C.ar    1  UNL1        0.0118
      6 C         140.4554  141.6049  169.2599 C.ar    1  UNL1        0.0685
      7 C         141.3169  140.4367  169.6383 C.ar    1  UNL1        0.0118
      8 C         141.9473  139.5927  168.5705 C.ar    1  UNL1        0.0199
      9 C         141.7163  139.9169  167.1244 C.ar    1  UNL1        0.0844
     10 N         142.3468  139.0729  166.0565 N.ar    1  UNL1       -0.2119
     11 C         142.1158  139.3971  164.6103 C.ar    1  UNL1        0.2211
     12 C         139.8249  142.4489  170.3277 C.1     1  UNL1        0.1004
     13 N         139.1945  143.2928  171.3955 N.1     1  UNL1       -0.1908
     14 O         142.7462  138.5531  163.5425 O.3     1  UNL1       -0.4563
     15 C         144.1758  138.7835  163.1509 C.3     1  UNL1        0.2542
     16 C         142.1315  141.4755  161.9621 C.ar    1  UNL1        0.0215
     17 C         142.5240  140.8310  160.6657 C.ar    1  UNL1       -0.0007
     18 C         143.6323  141.4170  159.8421 C.ar    1  UNL1        0.0030
     19 C         144.3481  142.6475  160.3149 C.ar    1  UNL1        0.0402
     20 C         143.9555  143.2920  161.6113 C.ar    1  UNL1        0.1761
     21 C         142.8473  142.7060  162.4349 C.ar    1  UNL1        0.1728
     22 O         142.6823  143.5544  163.6608 O.3     1  UNL1       -0.4349
     23 C         143.6886  144.6648  163.5949 C.3     1  UNL1        0.4294
     24 O         144.4756  144.5026  162.3282 O.3     1  UNL1       -0.4346
     25 C         139.6840  140.6275  162.1630 C.3     1  UNL1        0.1162
     26 O         140.0050  139.1642  162.0880 O.3     1  UNL1       -0.3820
     27 H         139.2576  138.6891  161.6923 H       1  UNL1        0.2107
     28 C         138.3481  144.1089  163.5215 C.ar    1  UNL1        0.2272
     29 C         138.6691  142.6455  163.4466 C.ar    1  UNL1        0.0559
     30 C         139.3630  142.0909  162.2379 C.ar    1  UNL1        0.0117
     31 C         139.7358  142.9995  161.1042 C.ar    1  UNL1        0.0560
     32 C         139.4148  144.4628  161.1792 C.ar    1  UNL1        0.2319
     33 N         138.7210  145.0175  162.3878 N.ar    1  UNL1       -0.1766
     34 C         138.4529  145.0685  165.9336 C.3     1  UNL1        0.2542
     35 O         137.6542  144.6636  164.7302 O.3     1  UNL1       -0.4561
     36 O         139.7877  145.3715  160.0454 O.3     1  UNL1       -0.4067
     37 C         140.4583  144.8124  158.8257 C.3     1  UNL1        0.5097
     38 F         139.6625  144.5676  157.5780 F       1  UNL1       -0.1549
     39 F         141.9248  144.4983  158.8537 F       1  UNL1       -0.1549
     40 C         138.3447  140.3656  161.5403 C.3     1  UNL1        0.0491
     41 C         138.1914  139.2751  160.5219 C.3     1  UNL1        0.0750
     42 N         138.7277  139.4643  159.1339 N.3     1  UNL1       -0.2702
     43 C         139.8125  138.5649  158.6200 C.3     1  UNL1        0.0897
     44 C         138.1792  140.5529  158.2599 C.3     1  UNL1        0.0897
@<TRIPOS>BOND
     1    34    35    1
     2    35    28    1
     3    28    29   ar
     4    29    30   ar
     5    30    25    1
     6    25    26    1
     7    25    40    1
     8    40    41    1
     9    41    42    1
    10    42    43    1
    11    42    44    1
    12    25     1    1
    13     1     2    1
    14     2     3   ar
    15     3     4   ar
    16     4     5   ar
    17     5     6   ar
    18     6    12    1
    19    12    13    3
    20     6     7   ar
    21     7     8   ar
    22     8     9   ar
    23     9    10   ar
    24    10    11   ar
    25    11    14    1
    26    14    15    1
    27     1    16    1
    28    16    17   ar
    29    17    18   ar
    30    18    19   ar
    31    19    20   ar
    32    20    21   ar
    33    21    22    1
    34    22    23    1
    35    23    24    1
    36    30    31   ar
    37    31    32   ar
    38    32    36    1
    39    36    37    1
    40    37    38    1
    41    37    39    1
    42    32    33   ar
    43    33    28   ar
    44    11     2   ar
    45    21    16   ar
    46     9     4   ar
    47    24    20    1
    48    26    27    1
@<TRIPOS>MOLECULE
*****
 44 48 0 0 0
SMALL
GASTEIGER

@<TRIPOS>ATOM
      1 C         140.7430  140.8252  162.6939 C.3     1  UNL1        0.0807
      2 C         140.2076  140.5415  164.0661 C.ar    1  UNL1        0.0375
      3 C         140.8797  141.1316  165.2702 C.ar    1  UNL1        0.0023
      4 C         140.3443  140.8479  166.6424 C.ar    1  UNL1        0.0183
      5 C         141.0164  141.4380  167.8465 C.ar    1  UNL1        0.0118
      6 C         140.4810  141.1543  169.2187 C.ar    1  UNL1        0.0685
      7 C         139.2733  140.2806  169.3867 C.ar    1  UNL1        0.0118
      8 C         138.6012  139.6905  168.1825 C.ar    1  UNL1        0.0199
      9 C         139.1367  139.9742  166.8104 C.ar    1  UNL1        0.0844
     10 N         138.4645  139.3841  165.6062 N.ar    1  UNL1       -0.2119
     11 C         139.0000  139.6678  164.2341 C.ar    1  UNL1        0.2211
     12 C         141.1531  141.7444  170.4229 C.1     1  UNL1        0.1004
     13 N         141.8252  142.3345  171.6271 N.1     1  UNL1       -0.1908
     14 O         138.3278  139.0777  163.0298 O.3     1  UNL1       -0.4563
     15 C         138.6082  137.6581  162.6348 C.3     1  UNL1        0.2542
     16 C         141.5726  139.7961  161.9850 C.ar    1  UNL1        0.0215
     17 C         142.7808  139.2141  162.6570 C.ar    1  UNL1       -0.0007
     18 C         143.6105  138.1849  161.9481 C.ar    1  UNL1        0.0030
     19 C         143.2320  137.7378  160.5672 C.ar    1  UNL1        0.0402
     20 C         142.0238  138.3199  159.8952 C.ar    1  UNL1        0.1761
     21 C         141.1942  139.3490  160.6041 C.ar    1  UNL1        0.1728
     22 O         140.0666  139.7411  159.6959 O.3     1  UNL1       -0.4349
     23 C         140.1994  138.9544  158.4257 C.3     1  UNL1        0.4294
     24 O         141.4091  138.0759  158.5489 O.3     1  UNL1       -0.4346
     25 C         140.4488  142.1380  162.0306 C.3     1  UNL1        0.1162
     26 O         138.9971  141.7701  161.9463 O.3     1  UNL1       -0.3820
     27 H         138.5047  142.4912  161.5237 H       1  UNL1        0.2107
     28 C         143.9422  143.3035  163.5097 C.ar    1  UNL1        0.2272
     29 C         142.4905  142.9356  163.4254 C.ar    1  UNL1        0.0559
     30 C         141.9005  142.5060  162.1149 C.ar    1  UNL1        0.0117
     31 C         142.7623  142.4444  160.8887 C.ar    1  UNL1        0.0560
     32 C         144.2140  142.8124  160.9730 C.ar    1  UNL1        0.2319
     33 N         144.8039  143.2419  162.2835 N.ar    1  UNL1       -0.1766
     34 C         144.0913  143.0735  166.0933 C.3     1  UNL1        0.2542
     35 O         144.5321  143.7331  164.8202 O.3     1  UNL1       -0.4561
     36 O         145.0757  142.7507  159.7468 O.3     1  UNL1       -0.4067
     37 C         144.5621  142.0907  158.5016 C.3     1  UNL1        0.5097
     38 F         144.2775  142.9128  157.2797 F       1  UNL1       -0.1549
     39 F         144.3332  140.6084  158.4783 F       1  UNL1       -0.1549
     40 C         140.1545  143.4509  161.3673 C.3     1  UNL1        0.0491
     41 C         139.8275  144.6551  162.1998 C.3     1  UNL1        0.0750
     42 N         138.9771  144.5101  163.4268 N.3     1  UNL1       -0.2702
     43 C         137.5033  144.2649  163.2932 C.3     1  UNL1        0.0897
     44 C         139.6003  144.6104  164.7875 C.3     1  UNL1        0.0897
@<TRIPOS>BOND
     1    34    35    1
     2    35    28    1
     3    28    29   ar
     4    29    30   ar
     5    30    25    1
     6    25    26    1
     7    25    40    1
     8    40    41    1
     9    41    42    1
    10    42    43    1
    11    42    44    1
    12    25     1    1
    13     1     2    1
    14     2     3   ar
    15     3     4   ar
    16     4     5   ar
    17     5     6   ar
    18     6    12    1
    19    12    13    3
    20     6     7   ar
    21     7     8   ar
    22     8     9   ar
    23     9    10   ar
    24    10    11   ar
    25    11    14    1
    26    14    15    1
    27     1    16    1
    28    16    17   ar
    29    17    18   ar
    30    18    19   ar
    31    19    20   ar
    32    20    21   ar
    33    21    22    1
    34    22    23    1
    35    23    24    1
    36    30    31   ar
    37    31    32   ar
    38    32    36    1
    39    36    37    1
    40    37    38    1
    41    37    39    1
    42    32    33   ar
    43    33    28   ar
    44    11     2   ar
    45    21    16   ar
    46     9     4   ar
    47    24    20    1
    48    26    27    1
