@<TRIPOS>MOLECULE
*****
 30 35 0 0 0
SMALL
GASTEIGER

@<TRIPOS>ATOM
      1 C         139.4512  140.3453  166.1732 C.ar    1  UNL1        0.0193
      2 C         139.5901  138.9563  165.6241 C.ar    1  UNL1        0.0046
      3 C         139.3644  138.7012  164.1633 C.ar    1  UNL1        0.0367
      4 C         138.9999  139.8352  163.2515 C.ar    1  UNL1        0.1360
      5 C         138.8610  141.2241  163.8006 C.ar    1  UNL1        0.0357
      6 C         139.0867  141.4792  165.2614 C.ar    1  UNL1        0.0022
      7 C         138.4964  142.3580  162.8888 C.3     1  UNL1        0.1580
      8 C         138.1391  143.5850  162.1033 C.3     1  UNL1        0.2351
      9 O         138.1123  144.7492  163.0488 O.2     1  UNL1       -0.4478
     10 C         138.4531  144.2418  164.4186 C.2     1  UNL1        0.2770
     11 N         138.5410  145.0672  165.6679 N.pl3   1  UNL1       -0.3133
     12 N         138.6905  142.7640  164.3198 N.2     1  UNL1       -0.2202
     13 C         138.2707  142.1030  161.4280 C.3     1  UNL1        0.1141
     14 C         138.3724  141.7866  161.6824 C.3     1  UNL1        0.1501
     15 O         138.2655  142.1192  161.4150 O.3     1  UNL1       -0.3532
     16 C         138.3724  141.7866  161.6824 C.3     1  UNL1        0.1501
     17 C         138.4096  140.7140  160.8790 C.3     1  UNL1        0.1395
     18 C         138.0445  141.5636  159.6979 C.3     1  UNL1        0.0404
     19 C         138.0904  140.3533  158.8130 C.3     1  UNL1        0.0072
     20 C         138.4556  139.5037  159.9941 C.3     1  UNL1        0.0404
     21 O         138.7742  139.5801  161.7907 O.3     1  UNL1       -0.4826
     22 H         138.3667  146.0355  165.6315 H       1  UNL1        0.1466
     23 H         138.7730  144.6407  166.5244 H       1  UNL1        0.1466
     24 C         141.4713  143.2569  169.9734 C.3     1  UNL1        0.0328
     25 C         140.6870  142.0561  169.5341 C.ar    1  UNL1        0.0006
     26 C         140.1283  141.1104  170.5557 C.ar    1  UNL1        0.1179
     27 N         139.3440  139.9097  170.1164 N.ar    1  UNL1       -0.1467
     28 N         139.1183  139.6546  168.6555 N.ar    1  UNL1       -0.1480
     29 C         139.6769  140.6003  167.6340 C.ar    1  UNL1        0.1026
     30 C         140.4613  141.8011  168.0733 C.ar    1  UNL1        0.0182
@<TRIPOS>BOND
     1    24    25    1
     2    25    26   ar
     3    26    27   ar
     4    27    28   ar
     5    28    29   ar
     6    29     1    1
     7     1     2   ar
     8     2     3   ar
     9     3     4   ar
    10     4     5   ar
    11     5     6   ar
    12     5     7    1
    13     7     8    1
    14     8     9    1
    15     9    10    1
    16    10    11    1
    17    10    12    2
    18     7    13    1
    19    13    14    1
    20    14    15    1
    21    15    16    1
    22    13    17    1
    23    17    18    1
    24    18    19    1
    25    19    20    1
    26    17    21    1
    27    29    30   ar
    28    30    25   ar
    29     6     1   ar
    30    12     7    1
    31    16    13    1
    32    20    17    1
    33    21     4    1
    34    11    22    1
    35    11    23    1
@<TRIPOS>MOLECULE
*****
 30 35 0 0 0
SMALL
GASTEIGER

@<TRIPOS>ATOM
      1 C         141.1958  140.1016  166.8125 C.ar    1  UNL1        0.0193
      2 C         142.5096  139.3808  166.8801 C.ar    1  UNL1        0.0046
      3 C         143.1053  138.7892  165.6371 C.ar    1  UNL1        0.0367
      4 C         142.3873  138.9183  164.3265 C.ar    1  UNL1        0.1360
      5 C         141.0735  139.6390  164.2588 C.ar    1  UNL1        0.0357
      6 C         140.4777  140.2307  165.5019 C.ar    1  UNL1        0.0022
      7 C         140.3555  139.7681  162.9482 C.3     1  UNL1        0.1580
      8 C         139.5261  139.9757  161.7157 C.3     1  UNL1        0.2351
      9 O         138.2984  140.7437  162.1069 O.2     1  UNL1       -0.4478
     10 C         138.3690  141.0108  163.5813 C.2     1  UNL1        0.2770
     11 N         137.3477  141.7508  164.3931 N.pl3   1  UNL1       -0.3133
     12 N         139.6403  140.4078  164.1012 N.2     1  UNL1       -0.2202
     13 C         140.9512  139.1765  161.7052 C.3     1  UNL1        0.1141
     14 C         141.1515  139.1405  162.0709 C.3     1  UNL1        0.1501
     15 O         140.9409  139.1783  161.6865 O.3     1  UNL1       -0.3532
     16 C         141.1515  139.1405  162.0709 C.3     1  UNL1        0.1501
     17 C         142.2649  138.4558  161.7728 C.3     1  UNL1        0.1395
     18 C         141.8567  138.3843  160.3312 C.3     1  UNL1        0.0404
     19 C         143.1075  137.6191  160.0149 C.3     1  UNL1        0.0072
     20 C         143.5157  137.6905  161.4565 C.3     1  UNL1        0.0404
     21 O         142.9830  138.3267  163.0835 O.3     1  UNL1       -0.4826
     22 H         136.5411  142.1116  163.9590 H       1  UNL1        0.1466
     23 H         137.4839  141.8756  165.3601 H       1  UNL1        0.1466
     24 C         140.4915  144.1679  169.9698 C.3     1  UNL1        0.0328
     25 C         140.2479  142.7264  169.6342 C.ar    1  UNL1        0.0006
     26 C         139.4086  141.8765  170.5415 C.ar    1  UNL1        0.1179
     27 N         139.1651  140.4350  170.2059 N.ar    1  UNL1       -0.1467
     28 N         139.7608  139.8433  168.9629 N.ar    1  UNL1       -0.1480
     29 C         140.6001  140.6932  168.0555 C.ar    1  UNL1        0.1026
     30 C         140.8436  142.1348  168.3912 C.ar    1  UNL1        0.0182
@<TRIPOS>BOND
     1    24    25    1
     2    25    26   ar
     3    26    27   ar
     4    27    28   ar
     5    28    29   ar
     6    29     1    1
     7     1     2   ar
     8     2     3   ar
     9     3     4   ar
    10     4     5   ar
    11     5     6   ar
    12     5     7    1
    13     7     8    1
    14     8     9    1
    15     9    10    1
    16    10    11    1
    17    10    12    2
    18     7    13    1
    19    13    14    1
    20    14    15    1
    21    15    16    1
    22    13    17    1
    23    17    18    1
    24    18    19    1
    25    19    20    1
    26    17    21    1
    27    29    30   ar
    28    30    25   ar
    29     6     1   ar
    30    12     7    1
    31    16    13    1
    32    20    17    1
    33    21     4    1
    34    11    22    1
    35    11    23    1
@<TRIPOS>MOLECULE
*****
 30 35 0 0 0
SMALL
GASTEIGER

@<TRIPOS>ATOM
      1 C         139.9204  140.0476  167.2150 C.ar    1  UNL1        0.0193
      2 C         138.7046  139.2003  166.9826 C.ar    1  UNL1        0.0046
      3 C         138.3590  138.7493  165.5944 C.ar    1  UNL1        0.0367
      4 C         139.2291  139.1455  164.4386 C.ar    1  UNL1        0.1360
      5 C         140.4449  139.9928  164.6710 C.ar    1  UNL1        0.0357
      6 C         140.7905  140.4438  166.0593 C.ar    1  UNL1        0.0022
      7 C         141.3150  140.3890  163.5152 C.3     1  UNL1        0.1580
      8 C         142.2747  140.8614  162.4636 C.3     1  UNL1        0.2351
      9 O         143.3374  141.6770  163.1385 O.2     1  UNL1       -0.4478
     10 C         143.0346  141.7087  164.6073 C.2     1  UNL1        0.2770
     11 N         143.8401  142.4127  165.6586 N.pl3   1  UNL1       -0.3133
     12 N         141.7847  140.9126  164.8402 N.2     1  UNL1       -0.2202
     13 C         140.9694  139.9380  162.1271 C.3     1  UNL1        0.1141
     14 C         140.7266  139.8274  162.4495 C.3     1  UNL1        0.1501
     15 O         140.9818  139.9436  162.1106 O.3     1  UNL1       -0.3532
     16 C         140.7266  139.8274  162.4495 C.3     1  UNL1        0.1501
     17 C         139.7537  139.0907  161.8947 C.3     1  UNL1        0.1395
     18 C         140.3608  139.2794  160.5360 C.3     1  UNL1        0.0404
     19 C         139.2648  138.4528  159.9314 C.3     1  UNL1        0.0072
     20 C         138.6577  138.2641  161.2900 C.3     1  UNL1        0.0404
     21 O         138.8835  138.6945  163.0505 O.3     1  UNL1       -0.4826
     22 H         144.6499  142.9123  165.4058 H       1  UNL1        0.1466
     23 H         143.5590  142.3752  166.6013 H       1  UNL1        0.1466
     24 C         142.6795  143.0836  170.4040 C.3     1  UNL1        0.0328
     25 C         141.6456  142.0166  170.1978 C.ar    1  UNL1        0.0006
     26 C         140.9572  141.4007  171.3796 C.ar    1  UNL1        0.1179
     27 N         139.9233  140.3338  171.1734 N.ar    1  UNL1       -0.1467
     28 N         139.5777  139.8827  169.7851 N.ar    1  UNL1       -0.1480
     29 C         140.2660  140.4986  168.6032 C.ar    1  UNL1        0.1026
     30 C         141.3000  141.5656  168.8096 C.ar    1  UNL1        0.0182
@<TRIPOS>BOND
     1    24    25    1
     2    25    26   ar
     3    26    27   ar
     4    27    28   ar
     5    28    29   ar
     6    29     1    1
     7     1     2   ar
     8     2     3   ar
     9     3     4   ar
    10     4     5   ar
    11     5     6   ar
    12     5     7    1
    13     7     8    1
    14     8     9    1
    15     9    10    1
    16    10    11    1
    17    10    12    2
    18     7    13    1
    19    13    14    1
    20    14    15    1
    21    15    16    1
    22    13    17    1
    23    17    18    1
    24    18    19    1
    25    19    20    1
    26    17    21    1
    27    29    30   ar
    28    30    25   ar
    29     6     1   ar
    30    12     7    1
    31    16    13    1
    32    20    17    1
    33    21     4    1
    34    11    22    1
    35    11    23    1
@<TRIPOS>MOLECULE
*****
 30 35 0 0 0
SMALL
GASTEIGER

@<TRIPOS>ATOM
      1 C         141.8508  142.8577  163.6802 C.ar    1  UNL1        0.0193
      2 C         143.1460  143.2670  164.3168 C.ar    1  UNL1        0.0046
      3 C         143.4798  142.8026  165.7035 C.ar    1  UNL1        0.0367
      4 C         142.5187  141.9288  166.4535 C.ar    1  UNL1        0.1360
      5 C         141.2236  141.5194  165.8170 C.ar    1  UNL1        0.0357
      6 C         140.8897  141.9839  164.4303 C.ar    1  UNL1        0.0022
      7 C         140.2624  140.6456  166.5671 C.3     1  UNL1        0.1580
      8 C         139.2082  139.7799  167.1909 C.3     1  UNL1        0.2351
      9 O         138.0884  139.6294  166.2043 O.2     1  UNL1       -0.4478
     10 C         138.4505  140.4020  164.9707 C.2     1  UNL1        0.2770
     11 N         137.6157  140.5250  163.7306 N.pl3   1  UNL1       -0.3133
     12 N         139.7941  141.0301  165.1948 N.2     1  UNL1       -0.2202
     13 C         140.5963  140.1812  167.9537 C.3     1  UNL1        0.1141
     14 C         140.8645  140.4250  167.7444 C.3     1  UNL1        0.1501
     15 O         140.5826  140.1687  167.9644 O.3     1  UNL1       -0.3532
     16 C         140.8645  140.4250  167.7444 C.3     1  UNL1        0.1501
     17 C         141.8914  140.5905  168.5902 C.3     1  UNL1        0.1395
     18 C         141.2064  139.7382  169.6171 C.3     1  UNL1        0.0404
     19 C         142.3636  139.9336  170.5513 C.3     1  UNL1        0.0072
     20 C         143.0486  140.7859  169.5244 C.3     1  UNL1        0.0404
     21 O         142.8525  141.4643  167.8401 O.3     1  UNL1       -0.4826
     22 H         136.7425  140.0733  163.6782 H       1  UNL1        0.1466
     23 H         137.9409  141.0574  162.9690 H       1  UNL1        0.1466
     24 C         138.7834  142.6757  159.4901 C.3     1  UNL1        0.0328
     25 C         139.9832  143.2312  160.1985 C.ar    1  UNL1        0.0006
     26 C         140.8492  144.2511  159.5203 C.ar    1  UNL1        0.1179
     27 N         142.0490  144.8065  160.2287 N.ar    1  UNL1       -0.1467
     28 N         142.3829  144.3420  161.6154 N.ar    1  UNL1       -0.1480
     29 C         141.5170  143.3221  162.2936 C.ar    1  UNL1        0.1026
     30 C         140.3171  142.7667  161.5851 C.ar    1  UNL1        0.0182
@<TRIPOS>BOND
     1    24    25    1
     2    25    26   ar
     3    26    27   ar
     4    27    28   ar
     5    28    29   ar
     6    29     1    1
     7     1     2   ar
     8     2     3   ar
     9     3     4   ar
    10     4     5   ar
    11     5     6   ar
    12     5     7    1
    13     7     8    1
    14     8     9    1
    15     9    10    1
    16    10    11    1
    17    10    12    2
    18     7    13    1
    19    13    14    1
    20    14    15    1
    21    15    16    1
    22    13    17    1
    23    17    18    1
    24    18    19    1
    25    19    20    1
    26    17    21    1
    27    29    30   ar
    28    30    25   ar
    29     6     1   ar
    30    12     7    1
    31    16    13    1
    32    20    17    1
    33    21     4    1
    34    11    22    1
    35    11    23    1
@<TRIPOS>MOLECULE
*****
 30 35 0 0 0
SMALL
GASTEIGER

@<TRIPOS>ATOM
      1 C         140.7632  143.4004  164.0347 C.ar    1  UNL1        0.0193
      2 C         139.9815  143.8596  165.2298 C.ar    1  UNL1        0.0046
      3 C         140.1221  143.1414  166.5391 C.ar    1  UNL1        0.0367
      4 C         141.0444  141.9639  166.6533 C.ar    1  UNL1        0.1360
      5 C         141.8260  141.5047  165.4583 C.ar    1  UNL1        0.0357
      6 C         141.6854  142.2229  164.1489 C.ar    1  UNL1        0.0022
      7 C         142.7482  140.3272  165.5726 C.3     1  UNL1        0.1580
      8 C         143.7041  139.1718  165.5350 C.3     1  UNL1        0.2351
      9 O         144.2578  139.0732  164.1444 O.2     1  UNL1       -0.4478
     10 C         143.6442  140.1677  163.3225 C.2     1  UNL1        0.2770
     11 N         143.9159  140.4395  161.8726 N.pl3   1  UNL1       -0.3133
     12 N         142.7112  140.9427  164.2051 N.2     1  UNL1       -0.2202
     13 C         142.8888  139.6089  166.8818 C.3     1  UNL1        0.1141
     14 C         142.6315  139.9374  166.8500 C.3     1  UNL1        0.1501
     15 O         142.9020  139.5921  166.8835 O.3     1  UNL1       -0.3532
     16 C         142.6315  139.9374  166.8500 C.3     1  UNL1        0.1501
     17 C         142.1072  140.0681  168.0769 C.3     1  UNL1        0.1395
     18 C         142.9022  138.8920  168.5615 C.3     1  UNL1        0.0404
     19 C         142.3061  139.0523  169.9286 C.3     1  UNL1        0.0072
     20 C         141.5111  140.2284  169.4440 C.3     1  UNL1        0.0404
     21 O         141.1850  141.2456  167.9626 O.3     1  UNL1       -0.4826
     22 H         144.5483  139.8720  161.3755 H       1  UNL1        0.1466
     23 H         143.4617  141.1855  161.4182 H       1  UNL1        0.1466
     24 C         142.1336  143.9940  159.0578 C.3     1  UNL1        0.0328
     25 C         141.3078  144.4155  160.2369 C.ar    1  UNL1        0.0006
     26 C         140.3413  145.5552  160.1067 C.ar    1  UNL1        0.1179
     27 N         139.5155  145.9767  161.2858 N.ar    1  UNL1       -0.1467
     28 N         139.6561  145.2584  162.5952 N.ar    1  UNL1       -0.1480
     29 C         140.6225  144.1187  162.7254 C.ar    1  UNL1        0.1026
     30 C         141.4484  143.6972  161.5462 C.ar    1  UNL1        0.0182
@<TRIPOS>BOND
     1    24    25    1
     2    25    26   ar
     3    26    27   ar
     4    27    28   ar
     5    28    29   ar
     6    29     1    1
     7     1     2   ar
     8     2     3   ar
     9     3     4   ar
    10     4     5   ar
    11     5     6   ar
    12     5     7    1
    13     7     8    1
    14     8     9    1
    15     9    10    1
    16    10    11    1
    17    10    12    2
    18     7    13    1
    19    13    14    1
    20    14    15    1
    21    15    16    1
    22    13    17    1
    23    17    18    1
    24    18    19    1
    25    19    20    1
    26    17    21    1
    27    29    30   ar
    28    30    25   ar
    29     6     1   ar
    30    12     7    1
    31    16    13    1
    32    20    17    1
    33    21     4    1
    34    11    22    1
    35    11    23    1
@<TRIPOS>MOLECULE
*****
 30 35 0 0 0
SMALL
GASTEIGER

@<TRIPOS>ATOM
      1 C         140.4326  140.1265  166.5738 C.ar    1  UNL1        0.0193
      2 C         139.6014  139.0199  165.9952 C.ar    1  UNL1        0.0046
      3 C         139.9623  138.4277  164.6651 C.ar    1  UNL1        0.0367
      4 C         141.1543  138.9420  163.9137 C.ar    1  UNL1        0.1360
      5 C         141.9854  140.0485  164.4922 C.ar    1  UNL1        0.0357
      6 C         141.6246  140.6408  165.8224 C.ar    1  UNL1        0.0022
      7 C         143.1773  140.5628  163.7408 C.3     1  UNL1        0.1580
      8 C         144.3912  141.1769  163.1086 C.3     1  UNL1        0.2351
      9 O         144.9046  142.2432  164.0303 O.2     1  UNL1       -0.4478
     10 C         144.0082  142.2882  165.2321 C.2     1  UNL1        0.2770
     11 N         144.1536  143.2098  166.4065 N.pl3   1  UNL1       -0.3133
     12 N         142.9406  141.2497  165.0532 N.2     1  UNL1       -0.2202
     13 C         143.5382  139.9706  162.4107 C.3     1  UNL1        0.1141
     14 C         143.2056  139.8271  162.6204 C.3     1  UNL1        0.1501
     15 O         143.5552  139.9780  162.4000 O.3     1  UNL1       -0.3532
     16 C         143.2056  139.8271  162.6204 C.3     1  UNL1        0.1501
     17 C         142.7071  138.8641  161.8322 C.3     1  UNL1        0.1395
     18 C         143.7881  139.1070  160.8210 C.3     1  UNL1        0.0404
     19 C         143.2174  138.0265  159.9511 C.3     1  UNL1        0.0072
     20 C         142.1363  137.7836  160.9622 C.3     1  UNL1        0.0404
     21 O         141.5151  138.3498  162.5836 O.3     1  UNL1       -0.4826
     22 H         144.8912  143.8613  166.4326 H       1  UNL1        0.1466
     23 H         143.5114  143.1632  167.1512 H       1  UNL1        0.1466
     24 C         140.5903  144.0947  169.9246 C.3     1  UNL1        0.0328
     25 C         140.1506  142.7028  169.5793 C.ar    1  UNL1        0.0006
     26 C         139.3501  141.9031  170.5640 C.ar    1  UNL1        0.1179
     27 N         138.9104  140.5113  170.2187 N.ar    1  UNL1       -0.1467
     28 N         139.2712  139.9190  168.8886 N.ar    1  UNL1       -0.1480
     29 C         140.0718  140.7187  167.9039 C.ar    1  UNL1        0.1026
     30 C         140.5115  142.1106  168.2493 C.ar    1  UNL1        0.0182
@<TRIPOS>BOND
     1    24    25    1
     2    25    26   ar
     3    26    27   ar
     4    27    28   ar
     5    28    29   ar
     6    29     1    1
     7     1     2   ar
     8     2     3   ar
     9     3     4   ar
    10     4     5   ar
    11     5     6   ar
    12     5     7    1
    13     7     8    1
    14     8     9    1
    15     9    10    1
    16    10    11    1
    17    10    12    2
    18     7    13    1
    19    13    14    1
    20    14    15    1
    21    15    16    1
    22    13    17    1
    23    17    18    1
    24    18    19    1
    25    19    20    1
    26    17    21    1
    27    29    30   ar
    28    30    25   ar
    29     6     1   ar
    30    12     7    1
    31    16    13    1
    32    20    17    1
    33    21     4    1
    34    11    22    1
    35    11    23    1
@<TRIPOS>MOLECULE
*****
 30 35 0 0 0
SMALL
GASTEIGER

@<TRIPOS>ATOM
      1 C         142.6919  140.6714  163.7643 C.ar    1  UNL1        0.0193
      2 C         143.5631  141.6080  164.5477 C.ar    1  UNL1        0.0046
      3 C         143.2181  141.9415  165.9688 C.ar    1  UNL1        0.0367
      4 C         142.0018  141.3383  166.6066 C.ar    1  UNL1        0.1360
      5 C         141.1306  140.4017  165.8233 C.ar    1  UNL1        0.0357
      6 C         141.4756  140.0682  164.4021 C.ar    1  UNL1        0.0022
      7 C         139.9143  139.7985  166.4611 C.3     1  UNL1        0.1580
      8 C         138.6728  139.1220  166.9624 C.3     1  UNL1        0.2351
      9 O         138.1228  138.2793  165.8500 O.2     1  UNL1       -0.4478
     10 C         139.0242  138.4350  164.6612 C.2     1  UNL1        0.2770
     11 N         138.8492  137.7688  163.3288 N.pl3   1  UNL1       -0.3133
     12 N         140.1314  139.3739  165.0389 N.2     1  UNL1       -0.2202
     13 C         139.5692  140.1320  167.8823 C.3     1  UNL1        0.1141
     14 C         139.9085  140.3002  167.7043 C.3     1  UNL1        0.1501
     15 O         139.5518  140.1234  167.8914 O.3     1  UNL1       -0.3532
     16 C         139.9085  140.3002  167.7043 C.3     1  UNL1        0.1501
     17 C         140.4404  141.0686  168.6656 C.3     1  UNL1        0.1395
     18 C         139.3442  140.6758  169.6111 C.3     1  UNL1        0.0404
     19 C         139.9524  141.5402  170.6755 C.3     1  UNL1        0.0072
     20 C         141.0486  141.9330  169.7300 C.3     1  UNL1        0.0404
     21 O         141.6567  141.6718  168.0278 O.3     1  UNL1       -0.4826
     22 H         138.0862  137.1656  163.1764 H       1  UNL1        0.1466
     23 H         139.4974  137.9347  162.6066 H       1  UNL1        0.1466
     24 C         142.6288  141.8900  158.7135 C.3     1  UNL1        0.0328
     25 C         143.0054  140.9473  159.8177 C.ar    1  UNL1        0.0006
     26 C         143.7271  139.6711  159.5008 C.ar    1  UNL1        0.1179
     27 N         144.1038  138.7283  160.6050 N.ar    1  UNL1       -0.1467
     28 N         143.7587  139.0617  162.0262 N.ar    1  UNL1       -0.1480
     29 C         143.0370  140.3379  162.3431 C.ar    1  UNL1        0.1026
     30 C         142.6604  141.2807  161.2388 C.ar    1  UNL1        0.0182
@<TRIPOS>BOND
     1    24    25    1
     2    25    26   ar
     3    26    27   ar
     4    27    28   ar
     5    28    29   ar
     6    29     1    1
     7     1     2   ar
     8     2     3   ar
     9     3     4   ar
    10     4     5   ar
    11     5     6   ar
    12     5     7    1
    13     7     8    1
    14     8     9    1
    15     9    10    1
    16    10    11    1
    17    10    12    2
    18     7    13    1
    19    13    14    1
    20    14    15    1
    21    15    16    1
    22    13    17    1
    23    17    18    1
    24    18    19    1
    25    19    20    1
    26    17    21    1
    27    29    30   ar
    28    30    25   ar
    29     6     1   ar
    30    12     7    1
    31    16    13    1
    32    20    17    1
    33    21     4    1
    34    11    22    1
    35    11    23    1
@<TRIPOS>MOLECULE
*****
 30 35 0 0 0
SMALL
GASTEIGER

@<TRIPOS>ATOM
      1 C         140.2740  143.6769  161.9697 C.ar    1  UNL1        0.0193
      2 C         139.0654  143.7847  162.8517 C.ar    1  UNL1        0.0046
      3 C         139.1862  143.5265  164.3243 C.ar    1  UNL1        0.0367
      4 C         140.5156  143.1606  164.9151 C.ar    1  UNL1        0.1360
      5 C         141.7241  143.0528  164.0332 C.ar    1  UNL1        0.0357
      6 C         141.6033  143.3110  162.5604 C.ar    1  UNL1        0.0022
      7 C         143.0534  142.6869  164.6239 C.3     1  UNL1        0.1580
      8 C         144.4411  142.3321  165.0693 C.3     1  UNL1        0.2351
      9 O         145.3319  142.3409  163.8624 O.2     1  UNL1       -0.4478
     10 C         144.4947  142.7012  162.6711 C.2     1  UNL1        0.2770
     11 N         144.9803  142.8258  161.2574 N.pl3   1  UNL1       -0.3133
     12 N         143.0865  142.9151  163.1417 N.2     1  UNL1       -0.2202
     13 C         143.1742  142.4288  166.0966 C.3     1  UNL1        0.1141
     14 C         142.8033  142.5309  165.9317 C.3     1  UNL1        0.1501
     15 O         143.1932  142.4236  166.1050 O.3     1  UNL1       -0.3532
     16 C         142.8033  142.5309  165.9317 C.3     1  UNL1        0.1501
     17 C         141.9657  142.5365  166.9784 C.3     1  UNL1        0.1395
     18 C         143.0871  142.1606  167.9010 C.3     1  UNL1        0.0404
     19 C         142.1365  142.1715  169.0612 C.3     1  UNL1        0.0072
     20 C         141.0150  142.5474  168.1387 C.3     1  UNL1        0.0404
     21 O         140.6363  142.9025  166.3877 O.3     1  UNL1       -0.4826
     22 H         145.9284  142.6650  161.0466 H       1  UNL1        0.1466
     23 H         144.3509  143.0684  160.5403 H       1  UNL1        0.1466
     24 C         142.0423  145.9355  157.6371 C.3     1  UNL1        0.0328
     25 C         141.0374  145.0644  158.3307 C.ar    1  UNL1        0.0006
     26 C         139.9117  144.4514  157.5517 C.ar    1  UNL1        0.1179
     27 N         138.9067  143.5802  158.2453 N.ar    1  UNL1       -0.1467
     28 N         139.0275  143.3220  159.7180 N.ar    1  UNL1       -0.1480
     29 C         140.1532  143.9350  160.4970 C.ar    1  UNL1        0.1026
     30 C         141.1582  144.8062  159.8034 C.ar    1  UNL1        0.0182
@<TRIPOS>BOND
     1    24    25    1
     2    25    26   ar
     3    26    27   ar
     4    27    28   ar
     5    28    29   ar
     6    29     1    1
     7     1     2   ar
     8     2     3   ar
     9     3     4   ar
    10     4     5   ar
    11     5     6   ar
    12     5     7    1
    13     7     8    1
    14     8     9    1
    15     9    10    1
    16    10    11    1
    17    10    12    2
    18     7    13    1
    19    13    14    1
    20    14    15    1
    21    15    16    1
    22    13    17    1
    23    17    18    1
    24    18    19    1
    25    19    20    1
    26    17    21    1
    27    29    30   ar
    28    30    25   ar
    29     6     1   ar
    30    12     7    1
    31    16    13    1
    32    20    17    1
    33    21     4    1
    34    11    22    1
    35    11    23    1
@<TRIPOS>MOLECULE
*****
 30 35 0 0 0
SMALL
GASTEIGER

@<TRIPOS>ATOM
      1 C         142.0304  139.2115  165.6213 C.ar    1  UNL1        0.0193
      2 C         141.4490  138.0005  164.9538 C.ar    1  UNL1        0.0046
      3 C         141.5840  137.8244  163.4703 C.ar    1  UNL1        0.0367
      4 C         142.3004  138.8593  162.6543 C.ar    1  UNL1        0.1360
      5 C         142.8818  140.0702  163.3218 C.ar    1  UNL1        0.0357
      6 C         142.7468  140.2464  164.8053 C.ar    1  UNL1        0.0022
      7 C         143.5982  141.1050  162.5058 C.3     1  UNL1        0.1580
      8 C         144.3377  142.2179  161.8241 C.3     1  UNL1        0.2351
      9 O         144.7388  143.2165  162.8692 O.2     1  UNL1       -0.4478
     10 C         144.2472  142.7207  164.1968 C.2     1  UNL1        0.2770
     11 N         144.4286  143.4089  165.5171 N.pl3   1  UNL1       -0.3133
     12 N         143.5423  141.4158  163.9723 N.2     1  UNL1       -0.2202
     13 C         143.7332  140.9289  161.0223 C.3     1  UNL1        0.1141
     14 C         143.5333  140.6402  161.2500 C.3     1  UNL1        0.1501
     15 O         143.7434  140.9437  161.0107 O.3     1  UNL1       -0.3532
     16 C         143.5333  140.6402  161.2500 C.3     1  UNL1        0.1501
     17 C         143.1518  139.7180  160.3549 C.3     1  UNL1        0.1395
     18 C         143.7771  140.5103  159.2452 C.3     1  UNL1        0.0404
     19 C         143.3427  139.4689  158.2568 C.3     1  UNL1        0.0072
     20 C         142.7174  138.6767  159.3665 C.3     1  UNL1        0.0404
     21 O         142.4354  138.6832  161.1709 O.3     1  UNL1       -0.4826
     22 H         144.9085  144.2674  165.5629 H       1  UNL1        0.1466
     23 H         144.0679  143.0022  166.3379 H       1  UNL1        0.1466
     24 C         139.1914  140.5895  169.7494 C.3     1  UNL1        0.0328
     25 C         140.4759  140.0767  169.1689 C.ar    1  UNL1        0.0006
     26 C         141.6253  139.7399  170.0718 C.ar    1  UNL1        0.1179
     27 N         142.9098  139.2270  169.4913 N.ar    1  UNL1       -0.1467
     28 N         143.0448  139.0508  168.0078 N.ar    1  UNL1       -0.1480
     29 C         141.8954  139.3876  167.1048 C.ar    1  UNL1        0.1026
     30 C         140.6109  139.9006  167.6854 C.ar    1  UNL1        0.0182
@<TRIPOS>BOND
     1    24    25    1
     2    25    26   ar
     3    26    27   ar
     4    27    28   ar
     5    28    29   ar
     6    29     1    1
     7     1     2   ar
     8     2     3   ar
     9     3     4   ar
    10     4     5   ar
    11     5     6   ar
    12     5     7    1
    13     7     8    1
    14     8     9    1
    15     9    10    1
    16    10    11    1
    17    10    12    2
    18     7    13    1
    19    13    14    1
    20    14    15    1
    21    15    16    1
    22    13    17    1
    23    17    18    1
    24    18    19    1
    25    19    20    1
    26    17    21    1
    27    29    30   ar
    28    30    25   ar
    29     6     1   ar
    30    12     7    1
    31    16    13    1
    32    20    17    1
    33    21     4    1
    34    11    22    1
    35    11    23    1
