@<TRIPOS>MOLECULE
*****
 37 40 0 0 0
SMALL
GASTEIGER

@<TRIPOS>ATOM
      1 C         141.1459  139.1837  161.7099 C.ar    1  UNL1        0.2204
      2 N         142.2231  138.8717  160.7137 N.ar    1  UNL1       -0.2089
      3 C         141.8603  138.5326  159.2983 C.ar    1  UNL1        0.1402
      4 C         140.4203  138.5054  158.8791 C.ar    1  UNL1        0.1773
      5 C         139.3431  138.8175  159.8753 C.ar    1  UNL1        0.1402
      6 N         139.7060  139.1566  161.2907 N.ar    1  UNL1       -0.2089
      7 C         141.2102  137.0315  163.7989 C.3     1  UNL1        0.0233
      8 C         141.5410  138.4468  164.1698 C.3     1  UNL1        0.0955
      9 C         141.9038  138.7859  165.5851 C.3     1  UNL1        0.1149
     10 N         142.2345  140.2012  165.9560 N.pl3   1  UNL1       -0.2590
     11 C         142.2024  141.2773  164.9116 C.3     1  UNL1        0.1166
     12 C         141.8395  140.9382  163.4963 C.3     1  UNL1        0.1151
     13 N         141.5088  139.5229  163.1253 N.pl3   1  UNL1       -0.2764
     14 C         142.5974  140.5404  167.3715 C.ar    1  UNL1        0.3120
     15 N         142.8072  139.5598  168.4870 N.ar    1  UNL1       -0.0922
     16 N         143.1536  140.3331  169.7248 N.ar    1  UNL1       -0.1018
     17 C         143.1579  141.7916  169.3742 C.ar    1  UNL1        0.3233
     18 O         142.8141  141.9197  167.9198 O.2     1  UNL1       -0.4012
     19 C         143.4540  142.9232  170.3132 C.3     1  UNL1        0.4711
     20 F         143.7500  144.0548  171.2522 F       1  UNL1       -0.1619
     21 F         144.9244  142.6900  170.1307 F       1  UNL1       -0.1619
     22 F         141.9835  143.1564  170.4958 F       1  UNL1       -0.1619
     23 O         140.0575  138.1663  157.4637 O.3     1  UNL1       -0.4674
     24 C         141.1357  137.9684  156.4399 C.3     1  UNL1        0.2344
     25 C         141.7409  136.6105  156.2409 C.ar    1  UNL1        0.0486
     26 C         143.0298  136.2566  156.9218 C.ar    1  UNL1        0.0013
     27 C         143.6349  134.8986  156.7227 C.ar    1  UNL1       -0.0034
     28 C         142.9512  133.8945  155.8428 C.ar    1  UNL1       -0.0057
     29 C         141.6624  134.2483  155.1619 C.ar    1  UNL1        0.0261
     30 C         141.0572  135.6063  155.3609 C.ar    1  UNL1        0.1393
     31 F         139.7683  135.9601  154.6801 F       1  UNL1       -0.2044
     32 C         143.5564  132.5365  155.6438 C.3     1  UNL1        0.1278
     33 S         144.1427  131.7983  156.8105 S.3     1  UNL1        0.0697
     34 C         144.7290  131.0602  157.9773 C.3     1  UNL1        0.1171
     35 N         142.7849  131.7198  157.4431 N.2     1  UNL1       -0.2504
     36 O         145.5005  131.8769  156.1779 O.2     1  UNL1       -0.2460
     37 H         142.1960  132.5087  157.4443 H       1  UNL1        0.1971
@<TRIPOS>BOND
     1     8     7    1
     2     8     9    1
     3     9    10    1
     4    10    14    1
     5    14    15   ar
     6    15    16   ar
     7    16    17   ar
     8    17    19    1
     9    19    20    1
    10    19    21    1
    11    19    22    1
    12    17    18   ar
    13    10    11    1
    14    11    12    1
    15    12    13    1
    16    13     1    1
    17     1     2   ar
    18     2     3   ar
    19     3     4   ar
    20     4    23    1
    21    23    24    1
    22    24    25    1
    23    25    26   ar
    24    26    27   ar
    25    27    28   ar
    26    28    32    1
    27    32    33    1
    28    33    34    1
    29    33    35    2
    30    33    36    2
    31    28    29   ar
    32    29    30   ar
    33    30    31    1
    34     4     5   ar
    35     5     6   ar
    36    13     8    1
    37     6     1   ar
    38    18    14   ar
    39    30    25   ar
    40    35    37    1
@<TRIPOS>MOLECULE
*****
 37 40 0 0 0
SMALL
GASTEIGER

@<TRIPOS>ATOM
      1 C         139.0470  141.3649  160.1060 C.ar    1  UNL1        0.2204
      2 N         137.9201  141.4075  161.0951 N.ar    1  UNL1       -0.2089
      3 C         137.7439  140.2899  162.0799 C.ar    1  UNL1        0.1402
      4 C         138.6945  139.1295  162.0755 C.ar    1  UNL1        0.1773
      5 C         139.8214  139.0869  161.0864 C.ar    1  UNL1        0.1402
      6 N         139.9976  140.2047  160.1016 N.ar    1  UNL1       -0.2089
      7 C         137.7448  141.2064  157.4080 C.3     1  UNL1        0.0233
      8 C         138.5721  142.4034  157.7723 C.3     1  UNL1        0.0955
      9 C         138.7484  143.5211  156.7876 C.3     1  UNL1        0.1149
     10 N         139.5757  144.7181  157.1519 N.pl3   1  UNL1       -0.2590
     11 C         140.2268  144.7974  158.5009 C.3     1  UNL1        0.1166
     12 C         140.0506  143.6797  159.4856 C.3     1  UNL1        0.1151
     13 N         139.2232  142.4827  159.1213 N.pl3   1  UNL1       -0.2764
     14 C         139.7519  145.8358  156.1672 C.ar    1  UNL1        0.3120
     15 N         140.6083  145.7995  154.9362 N.ar    1  UNL1       -0.0922
     16 N         140.4883  147.1273  154.2488 N.ar    1  UNL1       -0.1018
     17 C         139.5578  147.9843  155.0549 C.ar    1  UNL1        0.3233
     18 O         139.1027  147.1861  156.2406 O.2     1  UNL1       -0.4012
     19 C         139.1535  149.3922  154.7322 C.3     1  UNL1        0.4711
     20 F         138.7491  150.8002  154.4094 F       1  UNL1       -0.1619
     21 F         139.5759  149.1869  153.3076 F       1  UNL1       -0.1619
     22 F         138.7311  149.5975  156.1567 F       1  UNL1       -0.1619
     23 O         138.5183  138.0119  163.0602 O.3     1  UNL1       -0.4674
     24 C         139.5667  137.7583  164.1026 C.3     1  UNL1        0.2344
     25 C         139.5030  138.4729  165.4198 C.ar    1  UNL1        0.0486
     26 C         138.2408  138.4419  166.2297 C.ar    1  UNL1        0.0013
     27 C         138.1771  139.1565  167.5470 C.ar    1  UNL1       -0.0034
     28 C         139.3756  139.9022  168.0544 C.ar    1  UNL1       -0.0057
     29 C         140.6378  139.9333  167.2446 C.ar    1  UNL1        0.0261
     30 C         140.7015  139.2187  165.9273 C.ar    1  UNL1        0.1393
     31 F         141.9637  139.2498  165.1175 F       1  UNL1       -0.2044
     32 C         139.3118  140.6169  169.3717 C.3     1  UNL1        0.1278
     33 S         140.5570  140.7965  170.1885 S.3     1  UNL1        0.0697
     34 C         141.8022  140.9761  171.0054 C.3     1  UNL1        0.1171
     35 N         140.3889  139.4152  170.7486 N.2     1  UNL1       -0.2504
     36 O         140.7252  142.1778  169.6284 O.2     1  UNL1       -0.2460
     37 H         139.5000  139.1060  171.0375 H       1  UNL1        0.1971
@<TRIPOS>BOND
     1     8     7    1
     2     8     9    1
     3     9    10    1
     4    10    14    1
     5    14    15   ar
     6    15    16   ar
     7    16    17   ar
     8    17    19    1
     9    19    20    1
    10    19    21    1
    11    19    22    1
    12    17    18   ar
    13    10    11    1
    14    11    12    1
    15    12    13    1
    16    13     1    1
    17     1     2   ar
    18     2     3   ar
    19     3     4   ar
    20     4    23    1
    21    23    24    1
    22    24    25    1
    23    25    26   ar
    24    26    27   ar
    25    27    28   ar
    26    28    32    1
    27    32    33    1
    28    33    34    1
    29    33    35    2
    30    33    36    2
    31    28    29   ar
    32    29    30   ar
    33    30    31    1
    34     4     5   ar
    35     5     6   ar
    36    13     8    1
    37     6     1   ar
    38    18    14   ar
    39    30    25   ar
    40    35    37    1
@<TRIPOS>MOLECULE
*****
 37 40 0 0 0
SMALL
GASTEIGER

@<TRIPOS>ATOM
      1 C         139.9867  143.6875  160.9167 C.ar    1  UNL1        0.2204
      2 N         139.2489  143.2016  159.7044 N.ar    1  UNL1       -0.2089
      3 C         139.4023  143.9184  158.3958 C.ar    1  UNL1        0.1402
      4 C         140.2935  145.1212  158.2993 C.ar    1  UNL1        0.1773
      5 C         141.0312  145.6071  159.5115 C.ar    1  UNL1        0.1402
      6 N         140.8779  144.8902  160.8203 N.ar    1  UNL1       -0.2089
      7 C         137.7895  144.4662  162.8051 C.3     1  UNL1        0.0233
      8 C         138.7348  143.3600  163.1696 C.3     1  UNL1        0.0955
      9 C         138.5814  142.6431  164.4782 C.3     1  UNL1        0.1149
     10 N         139.5267  141.5369  164.8427 N.pl3   1  UNL1       -0.2590
     11 C         140.6252  141.1476  163.8985 C.3     1  UNL1        0.1166
     12 C         140.7786  141.8644  162.5899 C.3     1  UNL1        0.1151
     13 N         139.8333  142.9706  162.2254 N.pl3   1  UNL1       -0.2764
     14 C         139.3733  140.8201  166.1514 C.ar    1  UNL1        0.3120
     15 N         138.5584  139.5834  166.3890 N.ar    1  UNL1       -0.0922
     16 N         138.6894  139.2131  167.8367 N.ar    1  UNL1       -0.1018
     17 C         139.5852  140.2210  168.4938 C.ar    1  UNL1        0.3233
     18 O         140.0079  141.2141  167.4522 O.2     1  UNL1       -0.4012
     19 C         139.9877  140.2334  169.9387 C.3     1  UNL1        0.4711
     20 F         140.3902  140.2459  171.3836 F       1  UNL1       -0.1619
     21 F         141.1698  139.3680  169.6169 F       1  UNL1       -0.1619
     22 F         138.8056  141.0989  170.2605 F       1  UNL1       -0.1619
     23 O         140.4468  145.8379  156.9906 O.3     1  UNL1       -0.4674
     24 C         139.2393  146.3866  156.2900 C.3     1  UNL1        0.2344
     25 C         139.3349  147.6756  155.5289 C.ar    1  UNL1        0.0486
     26 C         139.9621  147.6974  154.1665 C.ar    1  UNL1        0.0013
     27 C         140.0577  148.9864  153.4053 C.ar    1  UNL1       -0.0034
     28 C         139.5262  150.2536  154.0066 C.ar    1  UNL1       -0.0057
     29 C         138.8990  150.2319  155.3690 C.ar    1  UNL1        0.0261
     30 C         138.8034  148.9429  156.1302 C.ar    1  UNL1        0.1393
     31 F         138.1762  148.9212  157.4926 F       1  UNL1       -0.2044
     32 C         139.6219  151.5426  153.2455 C.3     1  UNL1        0.1278
     33 S         139.1643  152.8232  153.8786 S.3     1  UNL1        0.0697
     34 C         138.7068  154.1038  154.5117 C.3     1  UNL1        0.1171
     35 N         137.8164  152.6562  153.2421 N.2     1  UNL1       -0.2504
     36 O         140.5123  152.9901  154.5150 O.2     1  UNL1       -0.2460
     37 H         137.7477  152.3732  152.3017 H       1  UNL1        0.1971
@<TRIPOS>BOND
     1     8     7    1
     2     8     9    1
     3     9    10    1
     4    10    14    1
     5    14    15   ar
     6    15    16   ar
     7    16    17   ar
     8    17    19    1
     9    19    20    1
    10    19    21    1
    11    19    22    1
    12    17    18   ar
    13    10    11    1
    14    11    12    1
    15    12    13    1
    16    13     1    1
    17     1     2   ar
    18     2     3   ar
    19     3     4   ar
    20     4    23    1
    21    23    24    1
    22    24    25    1
    23    25    26   ar
    24    26    27   ar
    25    27    28   ar
    26    28    32    1
    27    32    33    1
    28    33    34    1
    29    33    35    2
    30    33    36    2
    31    28    29   ar
    32    29    30   ar
    33    30    31    1
    34     4     5   ar
    35     5     6   ar
    36    13     8    1
    37     6     1   ar
    38    18    14   ar
    39    30    25   ar
    40    35    37    1
@<TRIPOS>MOLECULE
*****
 37 40 0 0 0
SMALL
GASTEIGER

@<TRIPOS>ATOM
      1 C         141.4569  143.4966  159.7086 C.ar    1  UNL1        0.2204
      2 N         141.3511  144.8703  160.3016 N.ar    1  UNL1       -0.2089
      3 C         140.2211  145.2012  161.2309 C.ar    1  UNL1        0.1402
      4 C         139.1968  144.1582  161.5672 C.ar    1  UNL1        0.1773
      5 C         139.3025  142.7845  160.9742 C.ar    1  UNL1        0.1402
      6 N         140.4326  142.4537  160.0449 N.ar    1  UNL1       -0.2089
      7 C         144.1360  142.7284  160.8187 C.3     1  UNL1        0.0233
      8 C         143.9265  142.7817  159.3344 C.3     1  UNL1        0.0955
      9 C         145.0565  142.4509  158.4051 C.3     1  UNL1        0.1149
     10 N         144.8469  142.5042  156.9207 N.pl3   1  UNL1       -0.2590
     11 C         143.5074  142.8883  156.3657 C.3     1  UNL1        0.1166
     12 C         142.3774  143.2191  157.2950 C.3     1  UNL1        0.1151
     13 N         142.5869  143.1658  158.7793 N.pl3   1  UNL1       -0.2764
     14 C         145.9770  142.1734  155.9914 C.ar    1  UNL1        0.3120
     15 N         145.8452  141.7525  154.5578 N.ar    1  UNL1       -0.0922
     16 N         147.2240  141.5244  154.0130 N.ar    1  UNL1       -0.1018
     17 C         148.2081  141.8043  155.1100 C.ar    1  UNL1        0.3233
     18 O         147.4374  142.2054  156.3327 O.2     1  UNL1       -0.4012
     19 C         149.7007  141.7013  155.0030 C.3     1  UNL1        0.4711
     20 F         151.1933  141.5982  154.8960 F       1  UNL1       -0.1619
     21 F         149.8309  142.0881  156.4464 F       1  UNL1       -0.1619
     22 F         149.5705  141.3144  153.5596 F       1  UNL1       -0.1619
     23 O         138.0667  144.4891  162.4965 O.3     1  UNL1       -0.4674
     24 C         138.3160  144.5974  163.9716 C.3     1  UNL1        0.2344
     25 C         138.8076  143.4058  164.7387 C.ar    1  UNL1        0.0486
     26 C         139.9360  143.5561  165.7155 C.ar    1  UNL1        0.0013
     27 C         140.4276  142.3644  166.4826 C.ar    1  UNL1       -0.0034
     28 C         139.7908  141.0226  166.2728 C.ar    1  UNL1       -0.0057
     29 C         138.6625  140.8724  165.2960 C.ar    1  UNL1        0.0261
     30 C         138.1709  142.0639  164.5289 C.ar    1  UNL1        0.1393
     31 F         137.0425  141.9137  163.5521 F       1  UNL1       -0.2044
     32 C         140.2825  139.8311  167.0399 C.3     1  UNL1        0.1278
     33 S         140.5467  139.9437  168.5121 S.3     1  UNL1        0.0697
     34 C         140.8110  140.0563  169.9844 C.3     1  UNL1        0.1171
     35 N         139.0722  139.8869  168.7812 N.2     1  UNL1       -0.2504
     36 O         142.0213  140.0005  168.2431 O.2     1  UNL1       -0.2460
     37 H         138.4497  140.4076  168.2239 H       1  UNL1        0.1971
@<TRIPOS>BOND
     1     8     7    1
     2     8     9    1
     3     9    10    1
     4    10    14    1
     5    14    15   ar
     6    15    16   ar
     7    16    17   ar
     8    17    19    1
     9    19    20    1
    10    19    21    1
    11    19    22    1
    12    17    18   ar
    13    10    11    1
    14    11    12    1
    15    12    13    1
    16    13     1    1
    17     1     2   ar
    18     2     3   ar
    19     3     4   ar
    20     4    23    1
    21    23    24    1
    22    24    25    1
    23    25    26   ar
    24    26    27   ar
    25    27    28   ar
    26    28    32    1
    27    32    33    1
    28    33    34    1
    29    33    35    2
    30    33    36    2
    31    28    29   ar
    32    29    30   ar
    33    30    31    1
    34     4     5   ar
    35     5     6   ar
    36    13     8    1
    37     6     1   ar
    38    18    14   ar
    39    30    25   ar
    40    35    37    1
@<TRIPOS>MOLECULE
*****
 37 40 0 0 0
SMALL
GASTEIGER

@<TRIPOS>ATOM
      1 C         139.6201  140.3957  160.4438 C.ar    1  UNL1        0.2204
      2 N         139.0565  139.9488  161.7601 N.ar    1  UNL1       -0.2089
      3 C         138.2723  140.9087  162.6048 C.ar    1  UNL1        0.1402
      4 C         138.0516  142.3155  162.1332 C.ar    1  UNL1        0.1773
      5 C         138.6153  142.7623  160.8169 C.ar    1  UNL1        0.1402
      6 N         139.3996  141.8024  159.9722 N.ar    1  UNL1       -0.2089
      7 C         142.4263  139.6663  161.2143 C.3     1  UNL1        0.0233
      8 C         141.8075  139.0710  159.9843 C.3     1  UNL1        0.0955
      9 C         142.5917  138.1111  159.1396 C.3     1  UNL1        0.1149
     10 N         141.9728  137.5159  157.9097 N.pl3   1  UNL1       -0.2590
     11 C         140.5698  137.8805  157.5245 C.3     1  UNL1        0.1166
     12 C         139.7856  138.8404  158.3692 C.3     1  UNL1        0.1151
     13 N         140.4044  139.4357  159.5991 N.pl3   1  UNL1       -0.2764
     14 C         142.7571  136.5559  157.0650 C.ar    1  UNL1        0.3120
     15 N         143.5722  136.9079  155.8561 N.ar    1  UNL1       -0.0922
     16 N         144.1828  135.6450  155.3249 N.ar    1  UNL1       -0.1018
     17 C         143.7450  134.5123  156.2056 C.ar    1  UNL1        0.3233
     18 O         142.8638  135.0754  157.2810 O.2     1  UNL1       -0.4012
     19 C         144.1221  133.0700  156.0399 C.3     1  UNL1        0.4711
     20 F         144.4992  131.6277  155.8742 F       1  UNL1       -0.1619
     21 F         143.4169  133.0377  154.7164 F       1  UNL1       -0.1619
     22 F         144.8273  133.1024  157.3633 F       1  UNL1       -0.1619
     23 O         137.2674  143.2754  162.9779 O.3     1  UNL1       -0.4674
     24 C         137.9822  144.2432  163.8737 C.3     1  UNL1        0.2344
     25 C         139.4797  144.2215  163.9580 C.ar    1  UNL1        0.0486
     26 C         140.2898  145.2043  163.1656 C.ar    1  UNL1        0.0013
     27 C         141.7873  145.1826  163.2500 C.ar    1  UNL1       -0.0034
     28 C         142.4746  144.1781  164.1267 C.ar    1  UNL1       -0.0057
     29 C         141.6645  143.1954  164.9191 C.ar    1  UNL1        0.0261
     30 C         140.1671  143.2170  164.8347 C.ar    1  UNL1        0.1393
     31 F         139.3570  142.2342  165.6271 F       1  UNL1       -0.2044
     32 C         143.9721  144.1565  164.2110 C.3     1  UNL1        0.1278
     33 S         144.7378  142.9922  163.6560 S.3     1  UNL1        0.0697
     34 C         145.5035  141.8278  163.1009 C.3     1  UNL1        0.1171
     35 N         144.7232  143.6298  162.2983 N.2     1  UNL1       -0.2504
     36 O         144.7524  142.3545  165.0136 O.2     1  UNL1       -0.2460
     37 H         143.8977  144.0447  161.9582 H       1  UNL1        0.1971
@<TRIPOS>BOND
     1     8     7    1
     2     8     9    1
     3     9    10    1
     4    10    14    1
     5    14    15   ar
     6    15    16   ar
     7    16    17   ar
     8    17    19    1
     9    19    20    1
    10    19    21    1
    11    19    22    1
    12    17    18   ar
    13    10    11    1
    14    11    12    1
    15    12    13    1
    16    13     1    1
    17     1     2   ar
    18     2     3   ar
    19     3     4   ar
    20     4    23    1
    21    23    24    1
    22    24    25    1
    23    25    26   ar
    24    26    27   ar
    25    27    28   ar
    26    28    32    1
    27    32    33    1
    28    33    34    1
    29    33    35    2
    30    33    36    2
    31    28    29   ar
    32    29    30   ar
    33    30    31    1
    34     4     5   ar
    35     5     6   ar
    36    13     8    1
    37     6     1   ar
    38    18    14   ar
    39    30    25   ar
    40    35    37    1
@<TRIPOS>MOLECULE
*****
 37 40 0 0 0
SMALL
GASTEIGER

@<TRIPOS>ATOM
      1 C         140.7479  138.5390  160.8950 C.ar    1  UNL1        0.2204
      2 N         139.6571  138.6250  159.8690 N.ar    1  UNL1       -0.2089
      3 C         139.9717  138.4020  158.4194 C.ar    1  UNL1        0.1402
      4 C         141.3771  138.0930  157.9958 C.ar    1  UNL1        0.1773
      5 C         142.4679  138.0070  159.0218 C.ar    1  UNL1        0.1402
      6 N         142.1533  138.2300  160.4715 N.ar    1  UNL1       -0.2089
      7 C         140.8297  141.3112  162.0386 C.3     1  UNL1        0.0233
      8 C         140.4742  140.1480  162.9164 C.3     1  UNL1        0.0955
      9 C         140.1596  140.3709  164.3660 C.3     1  UNL1        0.1149
     10 N         139.8040  139.2077  165.2438 N.pl3   1  UNL1       -0.2590
     11 C         139.7631  137.8216  164.6720 C.3     1  UNL1        0.1166
     12 C         140.0777  137.5987  163.2224 C.3     1  UNL1        0.1151
     13 N         140.4333  138.7619  162.3446 N.pl3   1  UNL1       -0.2764
     14 C         139.4894  139.4307  166.6934 C.ar    1  UNL1        0.3120
     15 N         138.2218  139.0358  167.3914 N.ar    1  UNL1       -0.0922
     16 N         138.3362  139.4487  168.8289 N.ar    1  UNL1       -0.1018
     17 C         139.6745  140.0989  169.0193 C.ar    1  UNL1        0.3233
     18 O         140.3872  140.0877  167.6995 O.2     1  UNL1       -0.4012
     19 C         140.2066  140.6614  170.3040 C.3     1  UNL1        0.4711
     20 F         140.7387  141.2239  171.5887 F       1  UNL1       -0.1619
     21 F         139.2241  141.7914  170.2162 F       1  UNL1       -0.1619
     22 F         141.1891  139.5314  170.3918 F       1  UNL1       -0.1619
     23 O         141.6917  137.8701  156.5462 O.3     1  UNL1       -0.4674
     24 C         142.8665  137.0234  156.1553 C.3     1  UNL1        0.2344
     25 C         142.7358  135.5296  156.1201 C.ar    1  UNL1        0.0486
     26 C         143.6873  134.6747  156.9036 C.ar    1  UNL1        0.0013
     27 C         143.5565  133.1808  156.8684 C.ar    1  UNL1       -0.0034
     28 C         142.4742  132.5418  156.0496 C.ar    1  UNL1       -0.0057
     29 C         141.5228  133.3966  155.2661 C.ar    1  UNL1        0.0261
     30 C         141.6535  134.8905  155.3013 C.ar    1  UNL1        0.1393
     31 F         140.7020  135.7453  154.5178 F       1  UNL1       -0.2044
     32 C         142.3435  131.0479  156.0144 C.3     1  UNL1        0.1278
     33 S         143.5572  130.1937  155.7972 S.3     1  UNL1        0.0697
     34 C         144.7710  129.3395  155.5799 C.3     1  UNL1        0.1171
     35 N         143.4276  129.6551  157.1911 N.2     1  UNL1       -0.2504
     36 O         143.6868  130.7324  154.4032 O.2     1  UNL1       -0.2460
     37 H         143.2271  130.2646  157.9377 H       1  UNL1        0.1971
@<TRIPOS>BOND
     1     8     7    1
     2     8     9    1
     3     9    10    1
     4    10    14    1
     5    14    15   ar
     6    15    16   ar
     7    16    17   ar
     8    17    19    1
     9    19    20    1
    10    19    21    1
    11    19    22    1
    12    17    18   ar
    13    10    11    1
    14    11    12    1
    15    12    13    1
    16    13     1    1
    17     1     2   ar
    18     2     3   ar
    19     3     4   ar
    20     4    23    1
    21    23    24    1
    22    24    25    1
    23    25    26   ar
    24    26    27   ar
    25    27    28   ar
    26    28    32    1
    27    32    33    1
    28    33    34    1
    29    33    35    2
    30    33    36    2
    31    28    29   ar
    32    29    30   ar
    33    30    31    1
    34     4     5   ar
    35     5     6   ar
    36    13     8    1
    37     6     1   ar
    38    18    14   ar
    39    30    25   ar
    40    35    37    1
@<TRIPOS>MOLECULE
*****
 37 40 0 0 0
SMALL
GASTEIGER

@<TRIPOS>ATOM
      1 C         138.9723  142.1593  160.3999 C.ar    1  UNL1        0.2204
      2 N         139.8407  140.9522  160.5968 N.ar    1  UNL1       -0.2089
      3 C         139.5725  140.0131  161.7353 C.ar    1  UNL1        0.1402
      4 C         138.4359  140.2811  162.6769 C.ar    1  UNL1        0.1773
      5 C         137.5676  141.4882  162.4799 C.ar    1  UNL1        0.1402
      6 N         137.8358  142.4273  161.3414 N.ar    1  UNL1       -0.2089
      7 C         137.8499  141.5776  157.6792 C.3     1  UNL1        0.0233
      8 C         138.6793  142.8076  157.9011 C.3     1  UNL1        0.0955
      9 C         138.9476  143.7467  156.7626 C.3     1  UNL1        0.1149
     10 N         139.7770  144.9766  156.9845 N.pl3   1  UNL1       -0.2590
     11 C         140.3382  145.2675  158.3447 C.3     1  UNL1        0.1166
     12 C         140.0700  144.3284  159.4832 C.3     1  UNL1        0.1151
     13 N         139.2405  143.0984  159.2613 N.pl3   1  UNL1       -0.2764
     14 C         140.0452  145.9158  155.8459 C.ar    1  UNL1        0.3120
     15 N         140.9876  145.6715  154.7048 N.ar    1  UNL1       -0.0922
     16 N         140.9429  146.8688  153.8023 N.ar    1  UNL1       -0.1018
     17 C         139.9729  147.8531  154.3857 C.ar    1  UNL1        0.3233
     18 O         139.4181  147.2641  155.6487 O.2     1  UNL1       -0.4012
     19 C         139.6197  149.1914  153.8076 C.3     1  UNL1        0.4711
     20 F         139.2666  150.5297  153.2295 F       1  UNL1       -0.1619
     21 F         139.1844  149.6623  155.1636 F       1  UNL1       -0.1619
     22 F         140.0550  148.7205  152.4516 F       1  UNL1       -0.1619
     23 O         138.1678  139.3420  163.8153 O.3     1  UNL1       -0.4674
     24 C         139.3081  138.6493  164.5008 C.3     1  UNL1        0.2344
     25 C         139.8207  139.1668  165.8120 C.ar    1  UNL1        0.0486
     26 C         141.2780  139.4824  165.9757 C.ar    1  UNL1        0.0013
     27 C         141.7906  139.9999  167.2871 C.ar    1  UNL1       -0.0034
     28 C         140.8460  140.2017  168.4346 C.ar    1  UNL1       -0.0057
     29 C         139.3887  139.8860  168.2709 C.ar    1  UNL1        0.0261
     30 C         138.8761  139.3686  166.9597 C.ar    1  UNL1        0.1393
     31 F         137.4189  139.0529  166.7960 F       1  UNL1       -0.2044
     32 C         141.3586  140.7191  169.7459 C.3     1  UNL1        0.1278
     33 S         142.6266  141.5191  169.7924 S.3     1  UNL1        0.0697
     34 C         143.8947  142.3190  169.8390 C.3     1  UNL1        0.1171
     35 N         141.8615  142.7537  169.4181 N.2     1  UNL1       -0.2504
     36 O         143.3918  140.2844  170.1667 O.2     1  UNL1       -0.2460
     37 H         141.1815  142.7149  168.7072 H       1  UNL1        0.1971
@<TRIPOS>BOND
     1     8     7    1
     2     8     9    1
     3     9    10    1
     4    10    14    1
     5    14    15   ar
     6    15    16   ar
     7    16    17   ar
     8    17    19    1
     9    19    20    1
    10    19    21    1
    11    19    22    1
    12    17    18   ar
    13    10    11    1
    14    11    12    1
    15    12    13    1
    16    13     1    1
    17     1     2   ar
    18     2     3   ar
    19     3     4   ar
    20     4    23    1
    21    23    24    1
    22    24    25    1
    23    25    26   ar
    24    26    27   ar
    25    27    28   ar
    26    28    32    1
    27    32    33    1
    28    33    34    1
    29    33    35    2
    30    33    36    2
    31    28    29   ar
    32    29    30   ar
    33    30    31    1
    34     4     5   ar
    35     5     6   ar
    36    13     8    1
    37     6     1   ar
    38    18    14   ar
    39    30    25   ar
    40    35    37    1
@<TRIPOS>MOLECULE
*****
 37 40 0 0 0
SMALL
GASTEIGER

@<TRIPOS>ATOM
      1 C         141.7763  139.1078  161.3503 C.ar    1  UNL1        0.2204
      2 N         140.5581  139.1862  160.4785 N.ar    1  UNL1       -0.2089
      3 C         140.5706  138.5621  159.1145 C.ar    1  UNL1        0.1402
      4 C         141.8012  137.8596  158.6223 C.ar    1  UNL1        0.1773
      5 C         143.0193  137.7813  159.4941 C.ar    1  UNL1        0.1402
      6 N         143.0068  138.4054  160.8581 N.ar    1  UNL1       -0.2089
      7 C         141.0020  137.4706  163.7420 C.3     1  UNL1        0.0233
      8 C         141.3767  138.9133  163.9101 C.3     1  UNL1        0.0955
      9 C         141.3642  139.5375  165.2740 C.3     1  UNL1        0.1149
     10 N         141.7388  140.9802  165.4421 N.pl3   1  UNL1       -0.2590
     11 C         142.1259  141.7988  164.2462 C.3     1  UNL1        0.1166
     12 C         142.1384  141.1746  162.8823 C.3     1  UNL1        0.1151
     13 N         141.7638  139.7319  162.7143 N.pl3   1  UNL1       -0.2764
     14 C         141.7263  141.6043  166.8061 C.ar    1  UNL1        0.3120
     15 N         142.9315  142.0180  167.5974 N.ar    1  UNL1       -0.0922
     16 N         142.4565  142.5936  168.8986 N.ar    1  UNL1       -0.1018
     17 C         140.9576  142.5357  168.9113 C.ar    1  UNL1        0.3233
     18 O         140.5064  141.9242  167.6181 O.2     1  UNL1       -0.4012
     19 C         140.0665  143.0065  170.0223 C.3     1  UNL1        0.4711
     20 F         139.1754  143.4773  171.1332 F       1  UNL1       -0.1619
     21 F         139.4159  141.6559  170.0728 F       1  UNL1       -0.1619
     22 F         140.7171  144.3571  169.9718 F       1  UNL1       -0.1619
     23 O         141.8136  137.2356  157.2584 O.3     1  UNL1       -0.4674
     24 C         143.0555  136.5635  156.7524 C.3     1  UNL1        0.2344
     25 C         143.0370  135.0990  156.4288 C.ar    1  UNL1        0.0486
     26 C         142.7557  134.6441  155.0274 C.ar    1  UNL1        0.0013
     27 C         142.7372  133.1795  154.7037 C.ar    1  UNL1       -0.0034
     28 C         142.9999  132.1698  155.7815 C.ar    1  UNL1       -0.0057
     29 C         143.2811  132.6248  157.1829 C.ar    1  UNL1        0.0261
     30 C         143.2997  134.0893  157.5066 C.ar    1  UNL1        0.1393
     31 F         143.5809  134.5442  158.9080 F       1  UNL1       -0.2044
     32 C         142.9813  130.7053  155.4579 C.3     1  UNL1        0.1278
     33 S         143.7926  130.1804  154.3106 S.3     1  UNL1        0.0697
     34 C         144.6039  129.6555  153.1633 C.3     1  UNL1        0.1171
     35 N         145.0400  130.3095  155.1336 N.2     1  UNL1       -0.2504
     36 O         142.5453  130.0513  153.4875 O.2     1  UNL1       -0.2460
     37 H         145.1895  131.1163  155.6776 H       1  UNL1        0.1971
@<TRIPOS>BOND
     1     8     7    1
     2     8     9    1
     3     9    10    1
     4    10    14    1
     5    14    15   ar
     6    15    16   ar
     7    16    17   ar
     8    17    19    1
     9    19    20    1
    10    19    21    1
    11    19    22    1
    12    17    18   ar
    13    10    11    1
    14    11    12    1
    15    12    13    1
    16    13     1    1
    17     1     2   ar
    18     2     3   ar
    19     3     4   ar
    20     4    23    1
    21    23    24    1
    22    24    25    1
    23    25    26   ar
    24    26    27   ar
    25    27    28   ar
    26    28    32    1
    27    32    33    1
    28    33    34    1
    29    33    35    2
    30    33    36    2
    31    28    29   ar
    32    29    30   ar
    33    30    31    1
    34     4     5   ar
    35     5     6   ar
    36    13     8    1
    37     6     1   ar
    38    18    14   ar
    39    30    25   ar
    40    35    37    1
@<TRIPOS>MOLECULE
*****
 37 40 0 0 0
SMALL
GASTEIGER

@<TRIPOS>ATOM
      1 C         141.4835  141.9579  159.9204 C.ar    1  UNL1        0.2204
      2 N         142.6975  141.1270  159.6277 N.ar    1  UNL1       -0.2089
      3 C         143.9652  141.3544  160.3965 C.ar    1  UNL1        0.1402
      4 C         144.0189  142.4129  161.4581 C.ar    1  UNL1        0.1773
      5 C         142.8049  143.2439  161.7507 C.ar    1  UNL1        0.1402
      6 N         141.5371  143.0163  160.9818 N.ar    1  UNL1       -0.2089
      7 C         139.5260  139.8775  160.8370 C.3     1  UNL1        0.0233
      8 C         139.2370  140.6902  159.6098 C.3     1  UNL1        0.0955
      9 C         137.9694  140.4627  158.8409 C.3     1  UNL1        0.1149
     10 N         137.6804  141.2754  157.6137 N.pl3   1  UNL1       -0.2590
     11 C         138.6591  142.3156  157.1554 C.3     1  UNL1        0.1166
     12 C         139.9267  142.5431  157.9243 C.3     1  UNL1        0.1151
     13 N         140.2157  141.7304  159.1515 N.pl3   1  UNL1       -0.2764
     14 C         136.4126  141.0479  156.8448 C.ar    1  UNL1        0.3120
     15 N         136.0932  141.6012  155.4877 N.ar    1  UNL1       -0.0922
     16 N         134.7249  141.1224  155.1023 N.ar    1  UNL1       -0.1018
     17 C         134.1987  140.2731  156.2212 C.ar    1  UNL1        0.3233
     18 O         135.2418  140.2271  157.2981 O.2     1  UNL1       -0.4012
     19 C         132.8638  139.5899  156.2569 C.3     1  UNL1        0.4711
     20 F         131.5290  138.9066  156.2925 F       1  UNL1       -0.1619
     21 F         132.2065  140.8488  155.7742 F       1  UNL1       -0.1619
     22 F         133.5211  138.3309  156.7395 F       1  UNL1       -0.1619
     23 O         145.2866  142.6404  162.2269 O.3     1  UNL1       -0.4674
     24 C         145.6963  141.6758  163.3001 C.3     1  UNL1        0.2344
     25 C         144.6865  141.1902  164.2973 C.ar    1  UNL1        0.0486
     26 C         144.3269  139.7350  164.3527 C.ar    1  UNL1        0.0013
     27 C         143.3170  139.2494  165.3499 C.ar    1  UNL1       -0.0034
     28 C         142.6669  140.2190  166.2918 C.ar    1  UNL1       -0.0057
     29 C         143.0265  141.6742  166.2365 C.ar    1  UNL1        0.0261
     30 C         144.0363  142.1598  165.2393 C.ar    1  UNL1        0.1393
     31 F         144.3959  143.6150  165.1839 F       1  UNL1       -0.2044
     32 C         141.6571  139.7334  167.2890 C.3     1  UNL1        0.1278
     33 S         141.8519  140.0118  168.7500 S.3     1  UNL1        0.0697
     34 C         142.0467  140.2903  170.2110 C.3     1  UNL1        0.1171
     35 N         140.6334  140.8867  168.7458 N.2     1  UNL1       -0.2504
     36 O         143.0704  139.1370  168.7543 O.2     1  UNL1       -0.2460
     37 H         140.4876  141.5240  168.0097 H       1  UNL1        0.1971
@<TRIPOS>BOND
     1     8     7    1
     2     8     9    1
     3     9    10    1
     4    10    14    1
     5    14    15   ar
     6    15    16   ar
     7    16    17   ar
     8    17    19    1
     9    19    20    1
    10    19    21    1
    11    19    22    1
    12    17    18   ar
    13    10    11    1
    14    11    12    1
    15    12    13    1
    16    13     1    1
    17     1     2   ar
    18     2     3   ar
    19     3     4   ar
    20     4    23    1
    21    23    24    1
    22    24    25    1
    23    25    26   ar
    24    26    27   ar
    25    27    28   ar
    26    28    32    1
    27    32    33    1
    28    33    34    1
    29    33    35    2
    30    33    36    2
    31    28    29   ar
    32    29    30   ar
    33    30    31    1
    34     4     5   ar
    35     5     6   ar
    36    13     8    1
    37     6     1   ar
    38    18    14   ar
    39    30    25   ar
    40    35    37    1
