@<TRIPOS>MOLECULE
*****
 38 39 0 0 0
SMALL
GASTEIGER

@<TRIPOS>ATOM
      1 C         141.8343  138.1670  158.9323 C.2     1  UNL1        0.2499
      2 O         142.6477  137.4770  159.9871 O.2     1  UNL1       -0.2726
      3 N         140.5816  138.8999  159.3112 N.am    1  UNL1       -0.2823
      4 H         140.0478  139.3528  158.6190 H       1  UNL1        0.1549
      5 C         140.1422  138.9427  160.7448 C.ar    1  UNL1        0.0503
      6 C         139.0706  138.0116  161.2290 C.ar    1  UNL1        0.0144
      7 C         138.6312  138.0544  162.6626 C.ar    1  UNL1       -0.0002
      8 C         139.2635  139.0284  163.6120 C.ar    1  UNL1        0.0182
      9 C         140.3352  139.9596  163.1278 C.ar    1  UNL1       -0.0002
     10 C         140.7746  139.9168  161.6943 C.ar    1  UNL1        0.0144
     11 C         138.8242  139.0713  165.0456 C.3     1  UNL1        0.2827
     12 O         139.3861  137.6970  165.2589 O.3     1  UNL1       -0.3692
     13 H         139.2394  137.4269  166.1789 H       1  UNL1        0.2112
     14 C         138.3849  139.1142  166.4791 C.3     1  UNL1        0.4311
     15 F         137.9455  139.1570  167.9127 F       1  UNL1       -0.1669
     16 F         139.8161  139.2243  166.9144 F       1  UNL1       -0.1669
     17 F         137.5144  139.0527  166.3272 F       1  UNL1       -0.1669
     18 C         138.2623  140.4456  164.8323 C.3     1  UNL1        0.4311
     19 F         137.7005  141.8200  164.6190 F       1  UNL1       -0.1669
     20 F         137.6125  140.2118  164.2777 F       1  UNL1       -0.1669
     21 F         139.1353  141.3292  165.6734 F       1  UNL1       -0.1669
     22 C         142.2737  138.1242  157.4988 C.3     1  UNL1        0.1895
     23 C         145.6083  140.7956  156.0867 C.ar    1  UNL1        0.1247
     24 C         144.8493  141.1390  157.3341 C.ar    1  UNL1        0.0212
     25 C         143.7378  140.2485  157.8048 C.ar    1  UNL1        0.0182
     26 C         143.3853  139.0147  157.0281 C.ar    1  UNL1        0.0859
     27 N         144.1443  138.6713  155.7807 N.ar    1  UNL1       -0.2447
     28 C         145.2558  139.5617  155.3100 C.ar    1  UNL1        0.1168
     29 S         146.7199  141.6861  155.6160 S.O2    1  UNL1        0.0101
     30 O         146.7745  142.3327  156.9684 O.2     1  UNL1       -0.1686
     31 O         146.6652  141.0395  154.2636 O.2     1  UNL1       -0.1686
     32 C         149.1581  141.9857  154.7705 C.3     1  UNL1        0.0276
     33 C         147.8314  142.5765  155.1453 C.3     1  UNL1        0.1560
     34 N         141.6016  137.1909  156.5360 N.am    1  UNL1       -0.2938
     35 C         142.0983  135.7836  156.3850 C.2     1  UNL1        0.2235
     36 C         141.4261  134.8502  155.4221 C.3     1  UNL1        0.0946
     37 O         143.2671  135.3096  157.1968 O.2     1  UNL1       -0.2751
     38 H         140.8344  137.5019  156.0031 H       1  UNL1        0.1502
@<TRIPOS>BOND
     1    32    33    1
     2    33    29    1
     3    29    30    2
     4    29    31    2
     5    29    23    1
     6    23    24   ar
     7    24    25   ar
     8    25    26   ar
     9    26    22    1
    10    22    34    1
    11    34    35   am
    12    35    36    1
    13    35    37    2
    14    22     1    1
    15     1     2    2
    16     1     3   am
    17     3     5    1
    18     5     6   ar
    19     6     7   ar
    20     7     8   ar
    21     8    11    1
    22    11    12    1
    23    11    14    1
    24    14    15    1
    25    14    16    1
    26    14    17    1
    27    11    18    1
    28    18    19    1
    29    18    20    1
    30    18    21    1
    31     8     9   ar
    32     9    10   ar
    33    26    27   ar
    34    27    28   ar
    35    28    23   ar
    36    10     5   ar
    37    34    38    1
    38     3     4    1
    39    12    13    1
@<TRIPOS>MOLECULE
*****
 38 39 0 0 0
SMALL
GASTEIGER

@<TRIPOS>ATOM
      1 C         141.3485  138.8960  159.1341 C.2     1  UNL1        0.2499
      2 O         142.1424  139.7835  160.0463 O.2     1  UNL1       -0.2726
      3 N         140.1518  138.1594  159.6588 N.am    1  UNL1       -0.2823
      4 H         139.6308  137.5769  159.0601 H       1  UNL1        0.1549
      5 C         139.7489  138.3105  161.0958 C.ar    1  UNL1        0.0503
      6 C         140.5833  137.6915  162.1777 C.ar    1  UNL1        0.0144
      7 C         140.1804  137.8425  163.6147 C.ar    1  UNL1       -0.0002
      8 C         138.9430  138.6125  163.9697 C.ar    1  UNL1        0.0182
      9 C         138.1086  139.2315  162.8877 C.ar    1  UNL1       -0.0002
     10 C         138.5115  139.0804  161.4508 C.ar    1  UNL1        0.0144
     11 C         138.5401  138.7635  165.4066 C.3     1  UNL1        0.2827
     12 O         138.5129  137.2712  165.5559 O.3     1  UNL1       -0.3692
     13 H         138.2614  137.0416  166.4641 H       1  UNL1        0.2112
     14 C         138.1372  138.9145  166.8436 C.3     1  UNL1        0.4311
     15 F         137.7342  139.0655  168.2806 F       1  UNL1       -0.1669
     16 F         139.5230  139.3770  167.1836 F       1  UNL1       -0.1669
     17 F         137.2959  138.6543  166.7477 F       1  UNL1       -0.1669
     18 C         138.5673  140.2558  165.2574 C.3     1  UNL1        0.4311
     19 F         138.5946  141.7481  165.1082 F       1  UNL1       -0.1669
     20 F         137.6986  140.3909  165.3646 F       1  UNL1       -0.1669
     21 F         140.0155  140.5711  165.0261 F       1  UNL1       -0.1669
     22 C         141.7515  138.7450  157.6971 C.3     1  UNL1        0.1895
     23 C         142.1849  134.6418  155.9010 C.ar    1  UNL1        0.1247
     24 C         141.1541  135.5903  155.3645 C.ar    1  UNL1        0.0212
     25 C         141.0097  136.9581  155.9632 C.ar    1  UNL1        0.0182
     26 C         141.8959  137.3773  157.0984 C.ar    1  UNL1        0.0859
     27 N         142.9267  136.4288  157.6349 N.ar    1  UNL1       -0.2447
     28 C         143.0711  135.0611  157.0362 C.ar    1  UNL1        0.1168
     29 S         142.3293  133.2741  155.3023 S.O2    1  UNL1        0.0101
     30 O         142.2897  133.8719  153.9271 O.2     1  UNL1       -0.1686
     31 O         142.3690  132.6763  156.6774 O.2     1  UNL1       -0.1686
     32 C         142.9777  131.7518  153.2992 C.3     1  UNL1        0.0276
     33 C         142.4738  131.9064  154.7035 C.3     1  UNL1        0.1560
     34 N         142.0099  139.9618  156.8589 N.am    1  UNL1       -0.2938
     35 C         143.3906  140.5437  156.7873 C.2     1  UNL1        0.2235
     36 C         143.6490  141.7605  155.9490 C.3     1  UNL1        0.0946
     37 O         144.5128  139.9089  157.5538 O.2     1  UNL1       -0.2751
     38 H         141.2734  140.3784  156.3558 H       1  UNL1        0.1502
@<TRIPOS>BOND
     1    32    33    1
     2    33    29    1
     3    29    30    2
     4    29    31    2
     5    29    23    1
     6    23    24   ar
     7    24    25   ar
     8    25    26   ar
     9    26    22    1
    10    22    34    1
    11    34    35   am
    12    35    36    1
    13    35    37    2
    14    22     1    1
    15     1     2    2
    16     1     3   am
    17     3     5    1
    18     5     6   ar
    19     6     7   ar
    20     7     8   ar
    21     8    11    1
    22    11    12    1
    23    11    14    1
    24    14    15    1
    25    14    16    1
    26    14    17    1
    27    11    18    1
    28    18    19    1
    29    18    20    1
    30    18    21    1
    31     8     9   ar
    32     9    10   ar
    33    26    27   ar
    34    27    28   ar
    35    28    23   ar
    36    10     5   ar
    37    34    38    1
    38     3     4    1
    39    12    13    1
@<TRIPOS>MOLECULE
*****
 38 39 0 0 0
SMALL
GASTEIGER

@<TRIPOS>ATOM
      1 C         141.9298  138.0747  157.6246 C.2     1  UNL1        0.2499
      2 O         140.8146  138.4555  158.5528 O.2     1  UNL1       -0.2726
      3 N         143.3348  138.5068  157.9234 N.am    1  UNL1       -0.2823
      4 H         144.0667  138.2568  157.3143 H       1  UNL1        0.1549
      5 C         143.6246  139.3198  159.1502 C.ar    1  UNL1        0.0503
      6 C         143.7632  138.6442  160.4822 C.ar    1  UNL1        0.0144
      7 C         144.0530  139.4572  161.7091 C.ar    1  UNL1       -0.0002
      8 C         144.2041  140.9459  161.6039 C.ar    1  UNL1        0.0182
      9 C         144.0655  141.6215  160.2718 C.ar    1  UNL1       -0.0002
     10 C         143.7757  140.8085  159.0450 C.ar    1  UNL1        0.0144
     11 C         144.4939  141.7589  162.8306 C.3     1  UNL1        0.2827
     12 O         145.7885  142.2128  162.2240 O.3     1  UNL1       -0.3692
     13 H         146.2442  142.8064  162.8412 H       1  UNL1        0.2112
     14 C         144.7837  142.5719  164.0574 C.3     1  UNL1        0.4311
     15 F         145.0734  143.3850  165.2842 F       1  UNL1       -0.1669
     16 F         145.9837  141.7176  164.3401 F       1  UNL1       -0.1669
     17 F         144.1011  143.1312  163.9800 F       1  UNL1       -0.1669
     18 C         143.1994  141.3049  163.4372 C.3     1  UNL1        0.4311
     19 F         141.9047  140.8510  164.0439 F       1  UNL1       -0.1669
     20 F         143.5496  140.7833  164.0615 F       1  UNL1       -0.1669
     21 F         142.1518  142.0046  162.6228 F       1  UNL1       -0.1669
     22 C         141.6400  137.2617  156.3979 C.3     1  UNL1        0.1895
     23 C         143.1080  133.0174  156.1126 C.ar    1  UNL1        0.1247
     24 C         141.9959  133.4878  155.2226 C.ar    1  UNL1        0.0212
     25 C         141.5066  134.9026  155.3177 C.ar    1  UNL1        0.0182
     26 C         142.1293  135.8469  156.3028 C.ar    1  UNL1        0.0859
     27 N         143.2413  135.3765  157.1927 N.ar    1  UNL1       -0.2447
     28 C         143.7307  133.9618  157.0977 C.ar    1  UNL1        0.1168
     29 S         143.5973  131.6027  156.0175 S.O2    1  UNL1        0.0101
     30 O         142.1801  131.1115  156.0326 O.2     1  UNL1       -0.1686
     31 O         145.0145  132.0939  156.0024 O.2     1  UNL1       -0.1686
     32 C         143.8932  129.2483  157.0755 C.3     1  UNL1        0.0276
     33 C         144.0866  130.1879  155.9224 C.3     1  UNL1        0.1560
     34 N         140.8608  137.8634  155.2662 N.am    1  UNL1       -0.2938
     35 C         139.3773  137.6579  155.1842 C.2     1  UNL1        0.2235
     36 C         138.5981  138.2598  154.0525 C.3     1  UNL1        0.0946
     37 O         138.6728  136.8507  156.2340 O.2     1  UNL1       -0.2751
     38 H         141.3232  138.3933  154.5772 H       1  UNL1        0.1502
@<TRIPOS>BOND
     1    32    33    1
     2    33    29    1
     3    29    30    2
     4    29    31    2
     5    29    23    1
     6    23    24   ar
     7    24    25   ar
     8    25    26   ar
     9    26    22    1
    10    22    34    1
    11    34    35   am
    12    35    36    1
    13    35    37    2
    14    22     1    1
    15     1     2    2
    16     1     3   am
    17     3     5    1
    18     5     6   ar
    19     6     7   ar
    20     7     8   ar
    21     8    11    1
    22    11    12    1
    23    11    14    1
    24    14    15    1
    25    14    16    1
    26    14    17    1
    27    11    18    1
    28    18    19    1
    29    18    20    1
    30    18    21    1
    31     8     9   ar
    32     9    10   ar
    33    26    27   ar
    34    27    28   ar
    35    28    23   ar
    36    10     5   ar
    37    34    38    1
    38     3     4    1
    39    12    13    1
@<TRIPOS>MOLECULE
*****
 38 39 0 0 0
SMALL
GASTEIGER

@<TRIPOS>ATOM
      1 C         141.7573  137.8294  157.8229 C.2     1  UNL1        0.2499
      2 O         140.5560  138.5133  158.4054 O.2     1  UNL1       -0.2726
      3 N         143.0686  137.8683  158.5502 N.am    1  UNL1       -0.2823
      4 H         143.8570  137.4195  158.1679 H       1  UNL1        0.1549
      5 C         143.1786  138.5911  159.8600 C.ar    1  UNL1        0.0503
      6 C         143.7341  139.9837  159.9038 C.ar    1  UNL1        0.0144
      7 C         143.8441  140.7065  161.2136 C.ar    1  UNL1       -0.0002
      8 C         143.3985  140.0367  162.4796 C.ar    1  UNL1        0.0182
      9 C         142.8429  138.6440  162.4357 C.ar    1  UNL1       -0.0002
     10 C         142.7329  137.9213  161.1260 C.ar    1  UNL1        0.0144
     11 C         143.5084  140.7594  163.7893 C.3     1  UNL1        0.2827
     12 O         142.3937  141.6748  163.3778 O.3     1  UNL1       -0.3692
     13 H         142.2205  142.3128  164.0876 H       1  UNL1        0.2112
     14 C         143.6184  141.4821  165.0991 C.3     1  UNL1        0.4311
     15 F         143.7283  142.2049  166.4089 F       1  UNL1       -0.1669
     16 F         144.4733  142.5294  164.4494 F       1  UNL1       -0.1669
     17 F         143.1251  140.9203  165.5742 F       1  UNL1       -0.1669
     18 C         144.6231  139.8440  164.2009 C.3     1  UNL1        0.4311
     19 F         145.7379  138.9285  164.6125 F       1  UNL1       -0.1669
     20 F         145.2713  140.2596  163.7633 F       1  UNL1       -0.1669
     21 F         143.9525  138.8252  165.0741 F       1  UNL1       -0.1669
     22 C         141.6473  137.1066  156.5131 C.3     1  UNL1        0.1895
     23 C         143.2059  132.9031  156.1250 C.ar    1  UNL1        0.1247
     24 C         142.0286  133.3449  155.3073 C.ar    1  UNL1        0.0212
     25 C         141.5091  134.7461  155.4367 C.ar    1  UNL1        0.0182
     26 C         142.1668  135.7054  156.3837 C.ar    1  UNL1        0.0859
     27 N         143.3441  135.2636  157.2014 N.ar    1  UNL1       -0.2447
     28 C         143.8637  133.8624  157.0721 C.ar    1  UNL1        0.1168
     29 S         143.7255  131.5019  155.9956 S.O2    1  UNL1        0.0101
     30 O         142.3186  130.9874  155.9178 O.2     1  UNL1       -0.1686
     31 O         145.1323  132.0163  156.0735 O.2     1  UNL1       -0.1686
     32 C         144.7369  129.6027  154.5397 C.3     1  UNL1        0.0276
     33 C         144.2450  130.1007  155.8663 C.3     1  UNL1        0.1560
     34 N         141.0177  137.7851  155.3327 N.am    1  UNL1       -0.2938
     35 C         139.5414  137.6630  155.0969 C.2     1  UNL1        0.2235
     36 C         138.9118  138.3415  153.9165 C.3     1  UNL1        0.0946
     37 O         138.6947  136.8625  156.0415 O.2     1  UNL1       -0.2751
     38 H         141.5735  138.3105  154.7128 H       1  UNL1        0.1502
@<TRIPOS>BOND
     1    32    33    1
     2    33    29    1
     3    29    30    2
     4    29    31    2
     5    29    23    1
     6    23    24   ar
     7    24    25   ar
     8    25    26   ar
     9    26    22    1
    10    22    34    1
    11    34    35   am
    12    35    36    1
    13    35    37    2
    14    22     1    1
    15     1     2    2
    16     1     3   am
    17     3     5    1
    18     5     6   ar
    19     6     7   ar
    20     7     8   ar
    21     8    11    1
    22    11    12    1
    23    11    14    1
    24    14    15    1
    25    14    16    1
    26    14    17    1
    27    11    18    1
    28    18    19    1
    29    18    20    1
    30    18    21    1
    31     8     9   ar
    32     9    10   ar
    33    26    27   ar
    34    27    28   ar
    35    28    23   ar
    36    10     5   ar
    37    34    38    1
    38     3     4    1
    39    12    13    1
@<TRIPOS>MOLECULE
*****
 38 39 0 0 0
SMALL
GASTEIGER

@<TRIPOS>ATOM
      1 C         140.9266  138.6487  158.8560 C.2     1  UNL1        0.2499
      2 O         142.0720  139.0555  159.7350 O.2     1  UNL1       -0.2726
      3 N         139.5738  138.3995  159.4542 N.am    1  UNL1       -0.2823
      4 H         138.8221  138.1325  158.8773 H       1  UNL1        0.1549
      5 C         139.3665  138.5571  160.9315 C.ar    1  UNL1        0.0503
      6 C         140.2824  137.8632  161.8956 C.ar    1  UNL1        0.0144
      7 C         140.0750  138.0208  163.3729 C.ar    1  UNL1       -0.0002
      8 C         138.9517  138.8723  163.8859 C.ar    1  UNL1        0.0182
      9 C         138.0358  139.5661  162.9217 C.ar    1  UNL1       -0.0002
     10 C         138.2431  139.4085  161.4445 C.ar    1  UNL1        0.0144
     11 C         138.7443  139.0299  165.3631 C.3     1  UNL1        0.2827
     12 O         138.6848  137.5387  165.5139 O.3     1  UNL1       -0.3692
     13 H         138.5455  137.3134  166.4470 H       1  UNL1        0.2112
     14 C         138.5369  139.1875  166.8403 C.3     1  UNL1        0.4311
     15 F         138.3296  139.3452  168.3176 F       1  UNL1       -0.1669
     16 F         137.2059  138.5055  166.7262 F       1  UNL1       -0.1669
     17 F         139.3022  139.5987  167.0135 F       1  UNL1       -0.1669
     18 C         138.8039  140.5211  165.2124 C.3     1  UNL1        0.4311
     19 F         138.8635  142.0124  165.0616 F       1  UNL1       -0.1669
     20 F         137.9489  140.6808  165.3798 F       1  UNL1       -0.1669
     21 F         140.2409  140.7953  164.8806 F       1  UNL1       -0.1669
     22 C         141.1340  138.4911  157.3788 C.3     1  UNL1        0.1895
     23 C         142.5191  134.5486  155.7091 C.ar    1  UNL1        0.1247
     24 C         141.2480  135.1693  155.2103 C.ar    1  UNL1        0.0212
     25 C         140.7863  136.4835  155.7668 C.ar    1  UNL1        0.0182
     26 C         141.5957  137.1769  156.8222 C.ar    1  UNL1        0.0859
     27 N         142.8668  136.5562  157.3211 N.ar    1  UNL1       -0.2447
     28 C         143.3285  135.2420  156.7645 C.ar    1  UNL1        0.1168
     29 S         142.9808  133.2344  155.1525 S.O2    1  UNL1        0.0101
     30 O         142.2423  133.5150  153.8774 O.2     1  UNL1       -0.1686
     31 O         143.7193  132.9538  156.4276 O.2     1  UNL1       -0.1686
     32 C         144.3390  131.0346  155.4095 C.3     1  UNL1        0.0276
     33 C         143.4425  131.9202  154.5959 C.3     1  UNL1        0.1560
     34 N         140.8797  139.6477  156.4582 N.am    1  UNL1       -0.2938
     35 C         139.4739  140.0139  156.0846 C.2     1  UNL1        0.2235
     36 C         139.2196  141.1706  155.1639 C.3     1  UNL1        0.0946
     37 O         138.3224  139.2235  156.6316 O.2     1  UNL1       -0.2751
     38 H         141.6355  140.1665  156.0992 H       1  UNL1        0.1502
@<TRIPOS>BOND
     1    32    33    1
     2    33    29    1
     3    29    30    2
     4    29    31    2
     5    29    23    1
     6    23    24   ar
     7    24    25   ar
     8    25    26   ar
     9    26    22    1
    10    22    34    1
    11    34    35   am
    12    35    36    1
    13    35    37    2
    14    22     1    1
    15     1     2    2
    16     1     3   am
    17     3     5    1
    18     5     6   ar
    19     6     7   ar
    20     7     8   ar
    21     8    11    1
    22    11    12    1
    23    11    14    1
    24    14    15    1
    25    14    16    1
    26    14    17    1
    27    11    18    1
    28    18    19    1
    29    18    20    1
    30    18    21    1
    31     8     9   ar
    32     9    10   ar
    33    26    27   ar
    34    27    28   ar
    35    28    23   ar
    36    10     5   ar
    37    34    38    1
    38     3     4    1
    39    12    13    1
@<TRIPOS>MOLECULE
*****
 38 39 0 0 0
SMALL
GASTEIGER

@<TRIPOS>ATOM
      1 C         141.9229  138.1604  158.6305 C.2     1  UNL1        0.2499
      2 O         142.7419  137.4856  159.6907 O.2     1  UNL1       -0.2726
      3 N         140.6641  138.8858  159.0036 N.am    1  UNL1       -0.2823
      4 H         140.1266  139.3288  158.3078 H       1  UNL1        0.1549
      5 C         140.2242  138.9363  160.4368 C.ar    1  UNL1        0.0503
      6 C         139.1884  137.9740  160.9378 C.ar    1  UNL1        0.0144
      7 C         138.7486  138.0245  162.3710 C.ar    1  UNL1       -0.0002
      8 C         139.3446  139.0374  163.3032 C.ar    1  UNL1        0.0182
      9 C         140.3804  139.9997  162.8021 C.ar    1  UNL1       -0.0002
     10 C         140.8202  139.9492  161.3690 C.ar    1  UNL1        0.0144
     11 C         138.9048  139.0879  164.7363 C.3     1  UNL1        0.2827
     12 O         138.2583  140.4190  164.4910 O.3     1  UNL1       -0.3692
     13 H         137.8508  140.7367  165.3119 H       1  UNL1        0.2112
     14 C         138.4650  139.1384  166.1695 C.3     1  UNL1        0.4311
     15 F         138.0251  139.1890  167.6027 F       1  UNL1       -0.1669
     16 F         139.8639  139.4834  166.5866 F       1  UNL1       -0.1669
     17 F         137.6134  138.9399  166.0281 F       1  UNL1       -0.1669
     18 C         139.5512  137.7568  164.9816 C.3     1  UNL1        0.4311
     19 F         140.1977  136.4256  165.2270 F       1  UNL1       -0.1669
     20 F         138.8055  137.2970  165.1120 F       1  UNL1       -0.1669
     21 F         141.0193  138.0373  164.8544 F       1  UNL1       -0.1669
     22 C         142.3628  138.1099  157.1974 C.3     1  UNL1        0.1895
     23 C         145.7155  140.7547  155.7782 C.ar    1  UNL1        0.1247
     24 C         145.1901  139.6673  154.8886 C.ar    1  UNL1        0.0212
     25 C         144.0725  138.7857  155.3617 C.ar    1  UNL1        0.0182
     26 C         143.4804  138.9915  156.7243 C.ar    1  UNL1        0.0859
     27 N         144.0058  140.0789  157.6140 N.ar    1  UNL1       -0.2447
     28 C         145.1233  140.9605  157.1409 C.ar    1  UNL1        0.1168
     29 S         146.8331  141.6363  155.3052 S.O2    1  UNL1        0.0101
     30 O         146.6733  141.0935  153.9160 O.2     1  UNL1       -0.1686
     31 O         146.9929  142.1792  156.6943 O.2     1  UNL1       -0.1686
     32 C         149.2299  141.9084  154.3402 C.3     1  UNL1        0.0276
     33 C         147.9507  142.5179  154.8321 C.3     1  UNL1        0.1560
     34 N         141.6851  137.1778  156.2373 N.am    1  UNL1       -0.2938
     35 C         142.0491  135.7227  156.2213 C.2     1  UNL1        0.2235
     36 C         141.3713  134.7906  155.2611 C.3     1  UNL1        0.0946
     37 O         143.0909  135.1998  157.1653 O.2     1  UNL1       -0.2751
     38 H         141.0013  137.5210  155.6177 H       1  UNL1        0.1502
@<TRIPOS>BOND
     1    32    33    1
     2    33    29    1
     3    29    30    2
     4    29    31    2
     5    29    23    1
     6    23    24   ar
     7    24    25   ar
     8    25    26   ar
     9    26    22    1
    10    22    34    1
    11    34    35   am
    12    35    36    1
    13    35    37    2
    14    22     1    1
    15     1     2    2
    16     1     3   am
    17     3     5    1
    18     5     6   ar
    19     6     7   ar
    20     7     8   ar
    21     8    11    1
    22    11    12    1
    23    11    14    1
    24    14    15    1
    25    14    16    1
    26    14    17    1
    27    11    18    1
    28    18    19    1
    29    18    20    1
    30    18    21    1
    31     8     9   ar
    32     9    10   ar
    33    26    27   ar
    34    27    28   ar
    35    28    23   ar
    36    10     5   ar
    37    34    38    1
    38     3     4    1
    39    12    13    1
@<TRIPOS>MOLECULE
*****
 38 39 0 0 0
SMALL
GASTEIGER

@<TRIPOS>ATOM
      1 C         140.2738  145.9808  157.4004 C.2     1  UNL1        0.2499
      2 O         141.7453  146.2668  157.3450 O.2     1  UNL1       -0.2726
      3 N         139.6700  145.3946  158.6421 N.am    1  UNL1       -0.2823
      4 H         138.7042  145.2069  158.6785 H       1  UNL1        0.1549
      5 C         140.5377  145.0943  159.8283 C.ar    1  UNL1        0.0503
      6 C         141.6952  144.1503  159.6910 C.ar    1  UNL1        0.0144
      7 C         142.5629  143.8500  160.8772 C.ar    1  UNL1       -0.0002
      8 C         142.2729  144.4937  162.2007 C.ar    1  UNL1        0.0182
      9 C         141.1153  145.4377  162.3379 C.ar    1  UNL1       -0.0002
     10 C         140.2477  145.7380  161.1518 C.ar    1  UNL1        0.0144
     11 C         143.1405  144.1934  163.3869 C.3     1  UNL1        0.2827
     12 O         144.3299  144.7420  162.6558 O.3     1  UNL1       -0.3692
     13 H         145.1152  144.6772  163.2214 H       1  UNL1        0.2112
     14 C         144.0081  143.8932  164.5730 C.3     1  UNL1        0.4311
     15 F         144.8758  143.5928  165.7593 F       1  UNL1       -0.1669
     16 F         144.1650  145.3626  164.8303 F       1  UNL1       -0.1669
     17 F         143.9787  143.0103  164.5076 F       1  UNL1       -0.1669
     18 C         141.9512  143.6449  164.1179 C.3     1  UNL1        0.4311
     19 F         140.7618  143.0962  164.8490 F       1  UNL1       -0.1669
     20 F         141.8579  144.3144  164.6902 F       1  UNL1       -0.1669
     21 F         141.6760  142.3382  163.4345 F       1  UNL1       -0.1669
     22 C         139.4062  146.2812  156.2143 C.3     1  UNL1        0.1895
     23 C         139.1914  150.4711  154.5869 C.ar    1  UNL1        0.1247
     24 C         139.9144  149.4045  153.8191 C.ar    1  UNL1        0.0212
     25 C         139.9860  148.0078  154.3616 C.ar    1  UNL1        0.0182
     26 C         139.3346  147.6778  155.6718 C.ar    1  UNL1        0.0859
     27 N         138.6116  148.7444  156.4396 N.ar    1  UNL1       -0.2447
     28 C         138.5400  150.1411  155.8971 C.ar    1  UNL1        0.1168
     29 S         139.1198  151.8677  154.0444 S.O2    1  UNL1        0.0101
     30 O         139.1859  152.4132  155.4402 O.2     1  UNL1       -0.1686
     31 O         139.0536  151.3223  152.6487 O.2     1  UNL1       -0.1686
     32 C         137.7670  153.7752  152.9124 C.3     1  UNL1        0.0276
     33 C         139.0482  153.2644  153.5020 C.3     1  UNL1        0.1560
     34 N         138.6102  145.1848  155.5705 N.am    1  UNL1       -0.2938
     35 C         139.2479  144.3007  154.5402 C.2     1  UNL1        0.2235
     36 C         138.4519  143.2043  153.8965 C.3     1  UNL1        0.0946
     37 O         140.6816  144.5128  154.1536 O.2     1  UNL1       -0.2751
     38 H         137.6692  145.0456  155.8243 H       1  UNL1        0.1502
@<TRIPOS>BOND
     1    32    33    1
     2    33    29    1
     3    29    30    2
     4    29    31    2
     5    29    23    1
     6    23    24   ar
     7    24    25   ar
     8    25    26   ar
     9    26    22    1
    10    22    34    1
    11    34    35   am
    12    35    36    1
    13    35    37    2
    14    22     1    1
    15     1     2    2
    16     1     3   am
    17     3     5    1
    18     5     6   ar
    19     6     7   ar
    20     7     8   ar
    21     8    11    1
    22    11    12    1
    23    11    14    1
    24    14    15    1
    25    14    16    1
    26    14    17    1
    27    11    18    1
    28    18    19    1
    29    18    20    1
    30    18    21    1
    31     8     9   ar
    32     9    10   ar
    33    26    27   ar
    34    27    28   ar
    35    28    23   ar
    36    10     5   ar
    37    34    38    1
    38     3     4    1
    39    12    13    1
@<TRIPOS>MOLECULE
*****
 38 39 0 0 0
SMALL
GASTEIGER

@<TRIPOS>ATOM
      1 C         141.5993  138.5721  158.7384 C.2     1  UNL1        0.2499
      2 O         142.5238  138.0212  159.7834 O.2     1  UNL1       -0.2726
      3 N         140.2645  139.1288  159.1362 N.am    1  UNL1       -0.2823
      4 H         139.6577  139.4904  158.4504 H       1  UNL1        0.1549
      5 C         139.8541  139.1345  160.5790 C.ar    1  UNL1        0.0503
      6 C         140.3192  140.2343  161.4867 C.ar    1  UNL1        0.0144
      7 C         139.9088  140.2400  162.9295 C.ar    1  UNL1       -0.0002
      8 C         139.0332  139.1459  163.4645 C.ar    1  UNL1        0.0182
      9 C         138.5681  138.0460  162.5567 C.ar    1  UNL1       -0.0002
     10 C         138.9785  138.0403  161.1140 C.ar    1  UNL1        0.0144
     11 C         138.6228  139.1515  164.9072 C.3     1  UNL1        0.2827
     12 O         137.7958  140.3797  164.6671 O.3     1  UNL1       -0.3692
     13 H         137.3673  140.6479  165.4950 H       1  UNL1        0.2112
     14 C         138.2124  139.1572  166.3499 C.3     1  UNL1        0.4311
     15 F         137.8019  139.1629  167.7927 F       1  UNL1       -0.1669
     16 F         139.3860  140.0310  166.6804 F       1  UNL1       -0.1669
     17 F         137.4950  138.6455  166.2601 F       1  UNL1       -0.1669
     18 C         139.4498  137.9234  165.1473 C.3     1  UNL1        0.4311
     19 F         140.2769  136.6952  165.3874 F       1  UNL1       -0.1669
     20 F         140.2428  138.3100  165.0684 F       1  UNL1       -0.1669
     21 F         138.4357  136.8397  165.3648 F       1  UNL1       -0.1669
     22 C         142.0098  138.5664  157.2957 C.3     1  UNL1        0.1895
     23 C         142.5751  134.6610  155.1327 C.ar    1  UNL1        0.1247
     24 C         141.2002  135.2402  155.2879 C.ar    1  UNL1        0.0212
     25 C         141.0117  136.5420  156.0089 C.ar    1  UNL1        0.0182
     26 C         142.1982  137.2646  156.5747 C.ar    1  UNL1        0.0859
     27 N         143.5731  136.6854  156.4194 N.ar    1  UNL1       -0.2447
     28 C         143.7615  135.3836  155.6984 C.ar    1  UNL1        0.1168
     29 S         142.7635  133.3592  154.4117 S.O2    1  UNL1        0.0101
     30 O         143.7248  132.9109  155.4723 O.2     1  UNL1       -0.1686
     31 O         141.8022  133.8075  153.3510 O.2     1  UNL1       -0.1686
     32 C         141.7581  131.2431  153.2885 C.3     1  UNL1        0.0276
     33 C         142.9519  132.0574  153.6907 C.3     1  UNL1        0.1560
     34 N         142.2318  139.8624  156.5739 N.am    1  UNL1       -0.2938
     35 C         141.0638  140.6182  156.0131 C.2     1  UNL1        0.2235
     36 C         141.2858  141.9143  155.2913 C.3     1  UNL1        0.0946
     37 O         139.6738  140.0779  156.1739 O.2     1  UNL1       -0.2751
     38 H         143.1441  140.2170  156.4684 H       1  UNL1        0.1502
@<TRIPOS>BOND
     1    32    33    1
     2    33    29    1
     3    29    30    2
     4    29    31    2
     5    29    23    1
     6    23    24   ar
     7    24    25   ar
     8    25    26   ar
     9    26    22    1
    10    22    34    1
    11    34    35   am
    12    35    36    1
    13    35    37    2
    14    22     1    1
    15     1     2    2
    16     1     3   am
    17     3     5    1
    18     5     6   ar
    19     6     7   ar
    20     7     8   ar
    21     8    11    1
    22    11    12    1
    23    11    14    1
    24    14    15    1
    25    14    16    1
    26    14    17    1
    27    11    18    1
    28    18    19    1
    29    18    20    1
    30    18    21    1
    31     8     9   ar
    32     9    10   ar
    33    26    27   ar
    34    27    28   ar
    35    28    23   ar
    36    10     5   ar
    37    34    38    1
    38     3     4    1
    39    12    13    1
@<TRIPOS>MOLECULE
*****
 38 39 0 0 0
SMALL
GASTEIGER

@<TRIPOS>ATOM
      1 C         141.5645  141.5636  161.9519 C.2     1  UNL1        0.2499
      2 O         142.8310  141.6026  162.7548 O.2     1  UNL1       -0.2726
      3 N         140.2545  141.2918  162.6302 N.am    1  UNL1       -0.2823
      4 H         139.4233  141.2661  162.1033 H       1  UNL1        0.1549
      5 C         140.2111  141.0590  164.1115 C.ar    1  UNL1        0.0503
      6 C         140.2683  139.6614  164.6530 C.ar    1  UNL1        0.0144
      7 C         140.2248  139.4286  166.1343 C.ar    1  UNL1       -0.0002
      8 C         140.1241  140.5935  167.0739 C.ar    1  UNL1        0.0182
      9 C         140.0669  141.9912  166.5323 C.ar    1  UNL1       -0.0002
     10 C         140.1104  142.2239  165.0511 C.ar    1  UNL1        0.0144
     11 C         140.0806  140.3608  168.5551 C.3     1  UNL1        0.2827
     12 O         138.8214  139.5621  168.3926 O.3     1  UNL1       -0.3692
     13 H         138.5235  139.2481  169.2607 H       1  UNL1        0.2112
     14 C         140.0372  140.1281  170.0362 C.3     1  UNL1        0.4311
     15 F         139.9937  139.8953  171.5175 F       1  UNL1       -0.1669
     16 F         138.8373  141.0220  170.1414 F       1  UNL1       -0.1669
     17 F         140.7373  139.5874  170.0812 F       1  UNL1       -0.1669
     18 C         141.3399  141.1595  168.7175 C.3     1  UNL1        0.4311
     19 F         142.5992  141.9582  168.8799 F       1  UNL1       -0.1669
     20 F         140.9698  141.8683  169.0984 F       1  UNL1       -0.1669
     21 F         142.4074  140.2744  168.1455 F       1  UNL1       -0.1669
     22 C         141.6080  141.7964  160.4707 C.3     1  UNL1        0.1895
     23 C         141.8518  138.2989  157.6497 C.ar    1  UNL1        0.1247
     24 C         140.9448  139.4522  157.3379 C.ar    1  UNL1        0.0212
     25 C         140.8636  140.6180  158.2782 C.ar    1  UNL1        0.0182
     26 C         141.6893  140.6305  159.5304 C.ar    1  UNL1        0.0859
     27 N         142.5963  139.4773  159.8422 N.ar    1  UNL1       -0.2447
     28 C         142.6775  138.3114  158.9018 C.ar    1  UNL1        0.1168
     29 S         141.9330  137.1331  156.7093 S.O2    1  UNL1        0.0101
     30 O         140.4461  137.1835  156.5183 O.2     1  UNL1       -0.1686
     31 O         143.4200  137.0827  156.9003 O.2     1  UNL1       -0.1686
     32 C         142.5111  136.1671  154.3678 C.3     1  UNL1        0.0276
     33 C         142.0143  135.9673  155.7689 C.3     1  UNL1        0.1560
     34 N         141.5703  143.1949  159.9300 N.am    1  UNL1       -0.2938
     35 C         140.2799  143.9596  159.9173 C.2     1  UNL1        0.2235
     36 C         140.2422  145.3583  159.3764 C.3     1  UNL1        0.0946
     37 O         139.0272  143.3257  160.4454 O.2     1  UNL1       -0.2751
     38 H         142.3925  143.6110  159.5833 H       1  UNL1        0.1502
@<TRIPOS>BOND
     1    32    33    1
     2    33    29    1
     3    29    30    2
     4    29    31    2
     5    29    23    1
     6    23    24   ar
     7    24    25   ar
     8    25    26   ar
     9    26    22    1
    10    22    34    1
    11    34    35   am
    12    35    36    1
    13    35    37    2
    14    22     1    1
    15     1     2    2
    16     1     3   am
    17     3     5    1
    18     5     6   ar
    19     6     7   ar
    20     7     8   ar
    21     8    11    1
    22    11    12    1
    23    11    14    1
    24    14    15    1
    25    14    16    1
    26    14    17    1
    27    11    18    1
    28    18    19    1
    29    18    20    1
    30    18    21    1
    31     8     9   ar
    32     9    10   ar
    33    26    27   ar
    34    27    28   ar
    35    28    23   ar
    36    10     5   ar
    37    34    38    1
    38     3     4    1
    39    12    13    1
