@<TRIPOS>MOLECULE
*****
 30 35 0 0 0
SMALL
GASTEIGER

@<TRIPOS>ATOM
      1 O         136.9638  137.7213  168.1006 O.2     1  UNL1       -0.2863
      2 C         137.9175  138.4983  167.2424 C.ar    1  UNL1        0.2030
      3 C         138.0260  138.1949  165.7774 C.ar    1  UNL1        0.0955
      4 C         138.9798  138.9720  164.9191 C.ar    1  UNL1        0.2024
      5 O         139.8252  140.0524  165.5259 O.2     1  UNL1       -0.4398
      6 C         139.7167  140.3557  166.9909 C.ar    1  UNL1        0.1498
      7 C         140.5620  141.4361  167.5976 C.ar    1  UNL1        0.0352
      8 C         140.4536  141.7394  169.0627 C.ar    1  UNL1        0.0031
      9 C         139.4999  140.9625  169.9209 C.ar    1  UNL1        0.0003
     10 C         138.6545  139.8821  169.3141 C.ar    1  UNL1        0.0062
     11 C         138.7629  139.5787  167.8492 C.ar    1  UNL1        0.0736
     12 C         141.5158  142.2131  166.7394 C.ar    1  UNL1        0.0089
     13 C         142.9878  142.1693  167.0248 C.ar    1  UNL1        0.0006
     14 C         143.9415  142.9463  166.1666 C.ar    1  UNL1        0.0000
     15 C         143.4234  143.7671  165.0229 C.ar    1  UNL1        0.0005
     16 C         141.9515  143.8108  164.7375 C.ar    1  UNL1        0.0065
     17 C         140.9977  143.0338  165.5957 C.ar    1  UNL1        0.0295
     18 S         139.6102  143.2684  165.0762 S.2     1  UNL1       -0.0869
     19 C         139.7065  144.1904  163.8969 C.ar    1  UNL1        0.0295
     20 C         138.6636  144.7679  162.9866 C.ar    1  UNL1        0.0065
     21 C         139.0676  145.6807  161.8671 C.ar    1  UNL1        0.0005
     22 C         140.5146  146.0160  161.6577 C.ar    1  UNL1        0.0000
     23 C         141.5576  145.4384  162.5680 C.ar    1  UNL1        0.0005
     24 C         141.1535  144.5256  163.6876 C.ar    1  UNL1        0.0065
     25 N         139.0882  138.6686  163.4542 N.pl3   1  UNL1       -0.2742
     26 C         137.9104  138.8921  162.5528 C.3     1  UNL1        0.1257
     27 C         138.0188  138.5888  161.0878 C.3     1  UNL1        0.1637
     28 O         139.3050  138.0618  160.5242 O.3     1  UNL1       -0.3501
     29 C         140.4829  137.8382  161.4256 C.3     1  UNL1        0.1637
     30 C         140.3745  138.1416  162.8906 C.3     1  UNL1        0.1257
@<TRIPOS>BOND
     1     1     2    2
     2     2     3   ar
     3     3     4   ar
     4     4    25    1
     5    25    26    1
     6    26    27    1
     7    27    28    1
     8    28    29    1
     9    29    30    1
    10     4     5   ar
    11     5     6   ar
    12     6     7   ar
    13     7    12    1
    14    12    13   ar
    15    13    14   ar
    16    14    15   ar
    17    15    16   ar
    18    16    17   ar
    19    17    18   ar
    20    18    19   ar
    21    19    20   ar
    22    20    21   ar
    23    21    22   ar
    24    22    23   ar
    25    23    24   ar
    26     7     8   ar
    27     8     9   ar
    28     9    10   ar
    29    10    11   ar
    30    11     2   ar
    31    30    25    1
    32    11     6   ar
    33    17    12   ar
    34    24    19   ar
    35    24    16   ar
@<TRIPOS>MOLECULE
*****
 30 35 0 0 0
SMALL
GASTEIGER

@<TRIPOS>ATOM
      1 O         140.8178  144.8075  159.7907 O.2     1  UNL1       -0.2863
      2 C         140.7769  143.6421  160.7343 C.ar    1  UNL1        0.2030
      3 C         141.5051  142.3757  160.3940 C.ar    1  UNL1        0.0955
      4 C         141.4642  141.2103  161.3376 C.ar    1  UNL1        0.2024
      5 O         140.6950  141.3114  162.6214 O.2     1  UNL1       -0.4398
      6 C         139.9668  142.5778  162.9617 C.ar    1  UNL1        0.1498
      7 C         139.1977  142.6790  164.2455 C.ar    1  UNL1        0.0352
      8 C         138.4694  143.9455  164.5857 C.ar    1  UNL1        0.0031
      9 C         138.5103  145.1108  163.6422 C.ar    1  UNL1        0.0003
     10 C         139.2795  145.0097  162.3584 C.ar    1  UNL1        0.0062
     11 C         140.0077  143.7433  162.0181 C.ar    1  UNL1        0.0736
     12 C         139.1567  141.5136  165.1890 C.ar    1  UNL1        0.0089
     13 C         138.1403  140.4275  164.9958 C.ar    1  UNL1        0.0006
     14 C         138.0994  139.2622  165.9393 C.ar    1  UNL1        0.0000
     15 C         139.0748  139.1830  167.0761 C.ar    1  UNL1        0.0005
     16 C         140.0912  140.2691  167.2694 C.ar    1  UNL1        0.0065
     17 C         140.1321  141.4344  166.3258 C.ar    1  UNL1        0.0295
     18 S         141.2385  142.3473  166.7646 S.2     1  UNL1       -0.0869
     19 C         141.8812  141.7463  167.9793 C.ar    1  UNL1        0.0295
     20 C         143.0206  142.2026  168.8416 C.ar    1  UNL1        0.0065
     21 C         143.4509  141.3744  170.0159 C.ar    1  UNL1        0.0005
     22 C         142.7418  140.0900  170.3279 C.ar    1  UNL1        0.0000
     23 C         141.6024  139.6336  169.4656 C.ar    1  UNL1        0.0005
     24 C         141.1722  140.4618  168.2913 C.ar    1  UNL1        0.0065
     25 N         142.1924  139.9438  160.9974 N.pl3   1  UNL1       -0.2742
     26 C         143.1305  139.3276  161.9924 C.3     1  UNL1        0.1257
     27 C         143.8587  138.0612  161.6521 C.3     1  UNL1        0.1637
     28 O         143.6488  137.4109  160.3168 O.3     1  UNL1       -0.3501
     29 C         142.7107  138.0271  159.3217 C.3     1  UNL1        0.1637
     30 C         141.9825  139.2936  159.6620 C.3     1  UNL1        0.1257
@<TRIPOS>BOND
     1     1     2    2
     2     2     3   ar
     3     3     4   ar
     4     4    25    1
     5    25    26    1
     6    26    27    1
     7    27    28    1
     8    28    29    1
     9    29    30    1
    10     4     5   ar
    11     5     6   ar
    12     6     7   ar
    13     7    12    1
    14    12    13   ar
    15    13    14   ar
    16    14    15   ar
    17    15    16   ar
    18    16    17   ar
    19    17    18   ar
    20    18    19   ar
    21    19    20   ar
    22    20    21   ar
    23    21    22   ar
    24    22    23   ar
    25    23    24   ar
    26     7     8   ar
    27     8     9   ar
    28     9    10   ar
    29    10    11   ar
    30    11     2   ar
    31    30    25    1
    32    11     6   ar
    33    17    12   ar
    34    24    19   ar
    35    24    16   ar
@<TRIPOS>MOLECULE
*****
 30 35 0 0 0
SMALL
GASTEIGER

@<TRIPOS>ATOM
      1 O         136.6372  137.8697  167.3393 O.2     1  UNL1       -0.2863
      2 C         137.9639  138.5453  167.1561 C.ar    1  UNL1        0.2030
      3 C         138.4906  139.4642  168.2182 C.ar    1  UNL1        0.0955
      4 C         139.8173  140.1399  168.0350 C.ar    1  UNL1        0.2024
      5 O         140.6173  139.8965  166.7897 O.2     1  UNL1       -0.4398
      6 C         140.0906  138.9776  165.7275 C.ar    1  UNL1        0.1498
      7 C         140.8904  138.7343  164.4822 C.ar    1  UNL1        0.0352
      8 C         140.3637  137.8153  163.4201 C.ar    1  UNL1        0.0031
      9 C         139.0371  137.1397  163.6032 C.ar    1  UNL1        0.0003
     10 C         138.2371  137.3831  164.8486 C.ar    1  UNL1        0.0062
     11 C         138.7638  138.3020  165.9107 C.ar    1  UNL1        0.0736
     12 C         142.2171  139.4099  164.2990 C.ar    1  UNL1        0.0089
     13 C         143.4740  138.5929  164.2480 C.ar    1  UNL1        0.0006
     14 C         144.8007  139.2685  164.0647 C.ar    1  UNL1        0.0000
     15 C         144.8704  140.7611  163.9326 C.ar    1  UNL1        0.0005
     16 C         143.6135  141.5780  163.9836 C.ar    1  UNL1        0.0065
     17 C         142.2868  140.9025  164.1668 C.ar    1  UNL1        0.0295
     18 S         141.2250  141.9619  164.1789 S.2     1  UNL1       -0.0869
     19 C         141.8953  143.2922  164.0032 C.ar    1  UNL1        0.0295
     20 C         141.3523  144.6888  163.9374 C.ar    1  UNL1        0.0065
     21 C         142.2855  145.8483  163.7510 C.ar    1  UNL1        0.0005
     22 C         143.7617  145.6111  163.6303 C.ar    1  UNL1        0.0000
     23 C         144.3047  144.2144  163.6960 C.ar    1  UNL1        0.0005
     24 C         143.3715  143.0549  163.8825 C.ar    1  UNL1        0.0065
     25 N         140.3440  141.0588  169.0971 N.pl3   1  UNL1       -0.2742
     26 C         140.8533  140.4959  170.3908 C.3     1  UNL1        0.1257
     27 C         141.3800  141.4148  171.4529 C.3     1  UNL1        0.1637
     28 O         141.3974  142.8966  171.2214 O.3     1  UNL1       -0.3501
     29 C         140.8880  143.4596  169.9278 C.3     1  UNL1        0.1637
     30 C         140.3613  142.5407  168.8656 C.3     1  UNL1        0.1257
@<TRIPOS>BOND
     1     1     2    2
     2     2     3   ar
     3     3     4   ar
     4     4    25    1
     5    25    26    1
     6    26    27    1
     7    27    28    1
     8    28    29    1
     9    29    30    1
    10     4     5   ar
    11     5     6   ar
    12     6     7   ar
    13     7    12    1
    14    12    13   ar
    15    13    14   ar
    16    14    15   ar
    17    15    16   ar
    18    16    17   ar
    19    17    18   ar
    20    18    19   ar
    21    19    20   ar
    22    20    21   ar
    23    21    22   ar
    24    22    23   ar
    25    23    24   ar
    26     7     8   ar
    27     8     9   ar
    28     9    10   ar
    29    10    11   ar
    30    11     2   ar
    31    30    25    1
    32    11     6   ar
    33    17    12   ar
    34    24    19   ar
    35    24    16   ar
@<TRIPOS>MOLECULE
*****
 30 35 0 0 0
SMALL
GASTEIGER

@<TRIPOS>ATOM
      1 O         137.2877  138.3991  167.6717 O.2     1  UNL1       -0.2863
      2 C         138.5902  139.0185  167.2598 C.ar    1  UNL1        0.2030
      3 C         139.2605  140.0195  168.1536 C.ar    1  UNL1        0.0955
      4 C         140.5631  140.6390  167.7417 C.ar    1  UNL1        0.2024
      5 O         141.1954  140.2574  166.4361 O.2     1  UNL1       -0.4398
      6 C         140.5252  139.2565  165.5424 C.ar    1  UNL1        0.1498
      7 C         141.1575  138.8749  164.2368 C.ar    1  UNL1        0.0352
      8 C         140.4872  137.8739  163.3431 C.ar    1  UNL1        0.0031
      9 C         139.1847  137.2545  163.7548 C.ar    1  UNL1        0.0003
     10 C         138.5523  137.6360  165.0605 C.ar    1  UNL1        0.0062
     11 C         139.2226  138.6370  165.9542 C.ar    1  UNL1        0.0736
     12 C         142.4601  139.4944  163.8250 C.ar    1  UNL1        0.0089
     13 C         143.6814  139.3077  164.6755 C.ar    1  UNL1        0.0006
     14 C         144.9840  139.9271  164.2637 C.ar    1  UNL1        0.0000
     15 C         145.0652  140.7332  163.0013 C.ar    1  UNL1        0.0005
     16 C         143.8438  140.9199  162.1507 C.ar    1  UNL1        0.0065
     17 C         142.5413  140.3004  162.5626 C.ar    1  UNL1        0.0295
     18 S         141.5127  140.6542  161.5296 S.2     1  UNL1       -0.0869
     19 C         142.1796  141.4922  160.4794 C.ar    1  UNL1        0.0295
     20 C         141.6611  142.1270  159.2231 C.ar    1  UNL1        0.0065
     21 C         142.5833  142.9259  158.3508 C.ar    1  UNL1        0.0005
     22 C         144.0241  143.0901  158.7346 C.ar    1  UNL1        0.0000
     23 C         144.5426  142.4554  159.9909 C.ar    1  UNL1        0.0005
     24 C         143.6203  141.6564  160.8632 C.ar    1  UNL1        0.0065
     25 N         141.2333  141.6400  168.6355 N.pl3   1  UNL1       -0.2742
     26 C         140.4590  142.8113  169.1630 C.3     1  UNL1        0.1257
     27 C         141.1293  143.8123  170.0568 C.3     1  UNL1        0.1637
     28 O         142.5738  143.6419  170.4230 O.3     1  UNL1       -0.3501
     29 C         143.3482  142.4706  169.8955 C.3     1  UNL1        0.1637
     30 C         142.6779  141.4696  169.0017 C.3     1  UNL1        0.1257
@<TRIPOS>BOND
     1     1     2    2
     2     2     3   ar
     3     3     4   ar
     4     4    25    1
     5    25    26    1
     6    26    27    1
     7    27    28    1
     8    28    29    1
     9    29    30    1
    10     4     5   ar
    11     5     6   ar
    12     6     7   ar
    13     7    12    1
    14    12    13   ar
    15    13    14   ar
    16    14    15   ar
    17    15    16   ar
    18    16    17   ar
    19    17    18   ar
    20    18    19   ar
    21    19    20   ar
    22    20    21   ar
    23    21    22   ar
    24    22    23   ar
    25    23    24   ar
    26     7     8   ar
    27     8     9   ar
    28     9    10   ar
    29    10    11   ar
    30    11     2   ar
    31    30    25    1
    32    11     6   ar
    33    17    12   ar
    34    24    19   ar
    35    24    16   ar
@<TRIPOS>MOLECULE
*****
 30 35 0 0 0
SMALL
GASTEIGER

@<TRIPOS>ATOM
      1 O         144.4348  141.8402  159.0762 O.2     1  UNL1       -0.2863
      2 C         143.3536  141.6649  160.1010 C.ar    1  UNL1        0.2030
      3 C         142.4012  142.7882  160.3860 C.ar    1  UNL1        0.0955
      4 C         141.3199  142.6131  161.4109 C.ar    1  UNL1        0.2024
      5 O         141.1911  141.3146  162.1507 O.2     1  UNL1       -0.4398
      6 C         142.1434  140.1913  161.8657 C.ar    1  UNL1        0.1498
      7 C         142.0146  138.8929  162.6055 C.ar    1  UNL1        0.0352
      8 C         142.9670  137.7695  162.3205 C.ar    1  UNL1        0.0031
      9 C         144.0482  137.9447  161.2957 C.ar    1  UNL1        0.0003
     10 C         144.1770  139.2432  160.5558 C.ar    1  UNL1        0.0062
     11 C         143.2247  140.3664  160.8408 C.ar    1  UNL1        0.0736
     12 C         140.9333  138.7177  163.6303 C.ar    1  UNL1        0.0089
     13 C         139.7654  137.8215  163.3426 C.ar    1  UNL1        0.0006
     14 C         138.6842  137.6463  164.3674 C.ar    1  UNL1        0.0000
     15 C         138.7709  138.3672  165.6800 C.ar    1  UNL1        0.0005
     16 C         139.9389  139.2634  165.9677 C.ar    1  UNL1        0.0065
     17 C         141.0201  139.4386  164.9429 C.ar    1  UNL1        0.0295
     18 S         142.0431  140.3806  165.5049 S.2     1  UNL1       -0.0869
     19 C         141.5942  140.7877  166.8771 C.ar    1  UNL1        0.0295
     20 C         142.2016  141.6978  167.9030 C.ar    1  UNL1        0.0065
     21 C         141.5085  141.9175  169.2150 C.ar    1  UNL1        0.0005
     22 C         140.2080  141.2269  169.5010 C.ar    1  UNL1        0.0000
     23 C         139.6006  140.3168  168.4751 C.ar    1  UNL1        0.0005
     24 C         140.2937  140.0971  167.1631 C.ar    1  UNL1        0.0065
     25 N         140.3676  143.7364  161.6959 N.pl3   1  UNL1       -0.2742
     26 C         139.1131  143.4764  162.4759 C.3     1  UNL1        0.1257
     27 C         138.1607  144.5997  162.7609 C.3     1  UNL1        0.1637
     28 O         138.4629  145.9829  162.2659 O.3     1  UNL1       -0.3501
     29 C         139.7175  146.2430  161.4858 C.3     1  UNL1        0.1637
     30 C         140.6698  145.1197  161.2008 C.3     1  UNL1        0.1257
@<TRIPOS>BOND
     1     1     2    2
     2     2     3   ar
     3     3     4   ar
     4     4    25    1
     5    25    26    1
     6    26    27    1
     7    27    28    1
     8    28    29    1
     9    29    30    1
    10     4     5   ar
    11     5     6   ar
    12     6     7   ar
    13     7    12    1
    14    12    13   ar
    15    13    14   ar
    16    14    15   ar
    17    15    16   ar
    18    16    17   ar
    19    17    18   ar
    20    18    19   ar
    21    19    20   ar
    22    20    21   ar
    23    21    22   ar
    24    22    23   ar
    25    23    24   ar
    26     7     8   ar
    27     8     9   ar
    28     9    10   ar
    29    10    11   ar
    30    11     2   ar
    31    30    25    1
    32    11     6   ar
    33    17    12   ar
    34    24    19   ar
    35    24    16   ar
@<TRIPOS>MOLECULE
*****
 30 35 0 0 0
SMALL
GASTEIGER

@<TRIPOS>ATOM
      1 O         142.2058  144.8815  158.9159 O.2     1  UNL1       -0.2863
      2 C         141.8616  143.7754  159.8688 C.ar    1  UNL1        0.2030
      3 C         142.3276  142.3764  159.5937 C.ar    1  UNL1        0.0955
      4 C         141.9834  141.2702  160.5467 C.ar    1  UNL1        0.2024
      5 O         141.1734  141.5632  161.7748 O.2     1  UNL1       -0.4398
      6 C         140.7075  142.9622  162.0498 C.ar    1  UNL1        0.1498
      7 C         139.8975  143.2551  163.2778 C.ar    1  UNL1        0.0352
      8 C         139.4315  144.6542  163.5529 C.ar    1  UNL1        0.0031
      9 C         139.7756  145.7602  162.6000 C.ar    1  UNL1        0.0003
     10 C         140.5857  145.4673  161.3719 C.ar    1  UNL1        0.0062
     11 C         141.0516  144.0683  161.0969 C.ar    1  UNL1        0.0736
     12 C         139.5534  142.1490  164.2308 C.ar    1  UNL1        0.0089
     13 C         138.3865  141.2503  163.9468 C.ar    1  UNL1        0.0006
     14 C         138.0423  140.1442  164.8997 C.ar    1  UNL1        0.0000
     15 C         138.8651  139.9368  166.1367 C.ar    1  UNL1        0.0005
     16 C         140.0320  140.8355  166.4207 C.ar    1  UNL1        0.0065
     17 C         140.3761  141.9416  165.4677 C.ar    1  UNL1        0.0295
     18 S         141.5750  142.6629  166.0084 S.2     1  UNL1       -0.0869
     19 C         141.9718  142.0027  167.2955 C.ar    1  UNL1        0.0295
     20 C         143.0783  142.2840  168.2684 C.ar    1  UNL1        0.0065
     21 C         143.2311  141.4359  169.4961 C.ar    1  UNL1        0.0005
     22 C         142.2775  140.3065  169.7509 C.ar    1  UNL1        0.0000
     23 C         141.1710  140.0251  168.7780 C.ar    1  UNL1        0.0005
     24 C         141.0182  140.8733  167.5503 C.ar    1  UNL1        0.0065
     25 N         142.4494  139.8712  160.2716 N.pl3   1  UNL1       -0.2742
     26 C         143.2277  139.1218  161.3120 C.3     1  UNL1        0.1257
     27 C         143.6937  137.7228  161.0369 C.3     1  UNL1        0.1637
     28 O         143.3812  137.0733  159.7215 O.3     1  UNL1       -0.3501
     29 C         142.6028  137.8227  158.6811 C.3     1  UNL1        0.1637
     30 C         142.1369  139.2217  158.9562 C.3     1  UNL1        0.1257
@<TRIPOS>BOND
     1     1     2    2
     2     2     3   ar
     3     3     4   ar
     4     4    25    1
     5    25    26    1
     6    26    27    1
     7    27    28    1
     8    28    29    1
     9    29    30    1
    10     4     5   ar
    11     5     6   ar
    12     6     7   ar
    13     7    12    1
    14    12    13   ar
    15    13    14   ar
    16    14    15   ar
    17    15    16   ar
    18    16    17   ar
    19    17    18   ar
    20    18    19   ar
    21    19    20   ar
    22    20    21   ar
    23    21    22   ar
    24    22    23   ar
    25    23    24   ar
    26     7     8   ar
    27     8     9   ar
    28     9    10   ar
    29    10    11   ar
    30    11     2   ar
    31    30    25    1
    32    11     6   ar
    33    17    12   ar
    34    24    19   ar
    35    24    16   ar
@<TRIPOS>MOLECULE
*****
 30 35 0 0 0
SMALL
GASTEIGER

@<TRIPOS>ATOM
      1 O         139.2531  143.5207  158.3531 O.2     1  UNL1       -0.2863
      2 C         140.1301  143.0485  159.4746 C.ar    1  UNL1        0.2030
      3 C         140.7554  141.6864  159.4151 C.ar    1  UNL1        0.0955
      4 C         141.6325  141.2141  160.5366 C.ar    1  UNL1        0.2024
      5 O         141.8841  142.1039  161.7177 O.2     1  UNL1       -0.4398
      6 C         141.2588  143.4660  161.7772 C.ar    1  UNL1        0.1498
      7 C         141.5104  144.3558  162.9582 C.ar    1  UNL1        0.0352
      8 C         140.8850  145.7180  163.0177 C.ar    1  UNL1        0.0031
      9 C         140.0080  146.1903  161.8962 C.ar    1  UNL1        0.0003
     10 C         139.7564  145.3005  160.7152 C.ar    1  UNL1        0.0062
     11 C         140.3817  143.9383  160.6556 C.ar    1  UNL1        0.0736
     12 C         142.3874  143.8836  164.0797 C.ar    1  UNL1        0.0089
     13 C         143.8126  144.3439  164.1621 C.ar    1  UNL1        0.0006
     14 C         144.6896  143.8716  165.2837 C.ar    1  UNL1        0.0000
     15 C         144.1414  142.9391  166.3228 C.ar    1  UNL1        0.0005
     16 C         142.7162  142.4787  166.2404 C.ar    1  UNL1        0.0065
     17 C         141.8392  142.9510  165.1188 C.ar    1  UNL1        0.0295
     18 S         140.4846  142.3320  165.2976 S.2     1  UNL1       -0.0869
     19 C         140.5244  141.4773  166.5296 C.ar    1  UNL1        0.0295
     20 C         139.4829  140.6282  167.1962 C.ar    1  UNL1        0.0065
     21 C         139.8207  139.8697  168.4454 C.ar    1  UNL1        0.0005
     22 C         141.1999  139.9603  169.0280 C.ar    1  UNL1        0.0000
     23 C         142.2414  140.8095  168.3615 C.ar    1  UNL1        0.0005
     24 C         141.9036  141.5679  167.1123 C.ar    1  UNL1        0.0065
     25 N         142.2578  139.8519  160.4771 N.pl3   1  UNL1       -0.2742
     26 C         143.0606  139.3438  161.6378 C.3     1  UNL1        0.1257
     27 C         143.6859  137.9817  161.5783 C.3     1  UNL1        0.1637
     28 O         143.5085  137.1277  160.3581 O.3     1  UNL1       -0.3501
     29 C         142.7058  137.6358  159.1973 C.3     1  UNL1        0.1637
     30 C         142.0804  138.9979  159.2568 C.3     1  UNL1        0.1257
@<TRIPOS>BOND
     1     1     2    2
     2     2     3   ar
     3     3     4   ar
     4     4    25    1
     5    25    26    1
     6    26    27    1
     7    27    28    1
     8    28    29    1
     9    29    30    1
    10     4     5   ar
    11     5     6   ar
    12     6     7   ar
    13     7    12    1
    14    12    13   ar
    15    13    14   ar
    16    14    15   ar
    17    15    16   ar
    18    16    17   ar
    19    17    18   ar
    20    18    19   ar
    21    19    20   ar
    22    20    21   ar
    23    21    22   ar
    24    22    23   ar
    25    23    24   ar
    26     7     8   ar
    27     8     9   ar
    28     9    10   ar
    29    10    11   ar
    30    11     2   ar
    31    30    25    1
    32    11     6   ar
    33    17    12   ar
    34    24    19   ar
    35    24    16   ar
@<TRIPOS>MOLECULE
*****
 30 35 0 0 0
SMALL
GASTEIGER

@<TRIPOS>ATOM
      1 O         142.9798  139.9875  156.9209 O.2     1  UNL1       -0.2863
      2 C         142.5013  140.3539  158.2945 C.ar    1  UNL1        0.2030
      3 C         143.4573  140.3394  159.4504 C.ar    1  UNL1        0.0955
      4 C         142.9788  140.7057  160.8241 C.ar    1  UNL1        0.2024
      5 O         141.5444  141.0867  161.0418 O.2     1  UNL1       -0.4398
      6 C         140.5885  141.1012  159.8860 C.ar    1  UNL1        0.1498
      7 C         139.1541  141.4821  160.1037 C.ar    1  UNL1        0.0352
      8 C         138.1982  141.4966  158.9478 C.ar    1  UNL1        0.0031
      9 C         138.6766  141.1303  157.5742 C.ar    1  UNL1        0.0003
     10 C         140.1110  140.7493  157.3565 C.ar    1  UNL1        0.0062
     11 C         141.0669  140.7348  158.5123 C.ar    1  UNL1        0.0736
     12 C         138.6756  141.8485  161.4773 C.ar    1  UNL1        0.0089
     13 C         138.2595  143.2585  161.7753 C.ar    1  UNL1        0.0006
     14 C         137.7810  143.6248  163.1489 C.ar    1  UNL1        0.0000
     15 C         137.7186  142.5812  164.2245 C.ar    1  UNL1        0.0005
     16 C         138.1347  141.1713  163.9266 C.ar    1  UNL1        0.0065
     17 C         138.6132  140.8049  162.5530 C.ar    1  UNL1        0.0295
     18 S         138.9553  139.3444  162.5556 S.2     1  UNL1       -0.0869
     19 C         138.6882  138.8082  163.9308 C.ar    1  UNL1        0.0295
     20 C         138.8413  137.4377  164.5209 C.ar    1  UNL1        0.0065
     21 C         138.4872  137.1963  165.9584 C.ar    1  UNL1        0.0005
     22 C         137.9801  138.3254  166.8057 C.ar    1  UNL1        0.0000
     23 C         137.8270  139.6958  166.2156 C.ar    1  UNL1        0.0005
     24 C         138.1811  139.9373  164.7781 C.ar    1  UNL1        0.0065
     25 N         143.9347  140.6912  161.9799 N.pl3   1  UNL1       -0.2742
     26 C         143.9670  139.5163  162.9117 C.3     1  UNL1        0.1257
     27 C         144.9229  139.5017  164.0676 C.3     1  UNL1        0.1637
     28 O         145.8465  140.6621  164.2916 O.3     1  UNL1       -0.3501
     29 C         145.8143  141.8372  163.3598 C.3     1  UNL1        0.1637
     30 C         144.8584  141.8517  162.2040 C.3     1  UNL1        0.1257
@<TRIPOS>BOND
     1     1     2    2
     2     2     3   ar
     3     3     4   ar
     4     4    25    1
     5    25    26    1
     6    26    27    1
     7    27    28    1
     8    28    29    1
     9    29    30    1
    10     4     5   ar
    11     5     6   ar
    12     6     7   ar
    13     7    12    1
    14    12    13   ar
    15    13    14   ar
    16    14    15   ar
    17    15    16   ar
    18    16    17   ar
    19    17    18   ar
    20    18    19   ar
    21    19    20   ar
    22    20    21   ar
    23    21    22   ar
    24    22    23   ar
    25    23    24   ar
    26     7     8   ar
    27     8     9   ar
    28     9    10   ar
    29    10    11   ar
    30    11     2   ar
    31    30    25    1
    32    11     6   ar
    33    17    12   ar
    34    24    19   ar
    35    24    16   ar
@<TRIPOS>MOLECULE
*****
 30 35 0 0 0
SMALL
GASTEIGER

@<TRIPOS>ATOM
      1 O         140.0729  146.0862  157.6345 O.2     1  UNL1       -0.2863
      2 C         140.8990  145.1350  158.4487 C.ar    1  UNL1        0.2030
      3 C         141.7740  144.1267  157.7646 C.ar    1  UNL1        0.0955
      4 C         142.6002  143.1755  158.5787 C.ar    1  UNL1        0.2024
      5 O         142.5513  143.2325  160.0769 O.2     1  UNL1       -0.4398
      6 C         141.6764  144.2408  160.7609 C.ar    1  UNL1        0.1498
      7 C         141.6275  144.2978  162.2589 C.ar    1  UNL1        0.0352
      8 C         140.7525  145.3061  162.9430 C.ar    1  UNL1        0.0031
      9 C         139.9264  146.2573  162.1290 C.ar    1  UNL1        0.0003
     10 C         139.9753  146.2002  160.6308 C.ar    1  UNL1        0.0062
     11 C         140.8502  145.1920  159.9468 C.ar    1  UNL1        0.0736
     12 C         142.4536  143.3466  163.0731 C.ar    1  UNL1        0.0089
     13 C         143.7594  143.7980  163.6572 C.ar    1  UNL1        0.0006
     14 C         144.5855  142.8468  164.4713 C.ar    1  UNL1        0.0000
     15 C         144.1058  141.4443  164.7013 C.ar    1  UNL1        0.0005
     16 C         142.8001  140.9929  164.1172 C.ar    1  UNL1        0.0065
     17 C         141.9740  141.9441  163.3031 C.ar    1  UNL1        0.0295
     18 S         140.7383  141.2201  162.8571 S.2     1  UNL1       -0.0869
     19 C         140.8007  139.8214  163.3956 C.ar    1  UNL1        0.0295
     20 C         139.8619  138.6576  163.2773 C.ar    1  UNL1        0.0065
     21 C         140.1973  137.3534  163.9379 C.ar    1  UNL1        0.0005
     22 C         141.4716  137.2130  164.7167 C.ar    1  UNL1        0.0000
     23 C         142.4104  138.3768  164.8349 C.ar    1  UNL1        0.0005
     24 C         142.0750  139.6811  164.1744 C.ar    1  UNL1        0.0065
     25 N         143.4751  142.1673  157.8947 N.pl3   1  UNL1       -0.2742
     26 C         144.8844  142.5247  157.5258 C.3     1  UNL1        0.1257
     27 C         145.7593  141.5164  156.8418 C.3     1  UNL1        0.1637
     28 O         145.2250  140.1508  156.5267 O.3     1  UNL1       -0.3501
     29 C         143.8157  139.7933  156.8955 C.3     1  UNL1        0.1637
     30 C         142.9408  140.8015  157.5796 C.3     1  UNL1        0.1257
@<TRIPOS>BOND
     1     1     2    2
     2     2     3   ar
     3     3     4   ar
     4     4    25    1
     5    25    26    1
     6    26    27    1
     7    27    28    1
     8    28    29    1
     9    29    30    1
    10     4     5   ar
    11     5     6   ar
    12     6     7   ar
    13     7    12    1
    14    12    13   ar
    15    13    14   ar
    16    14    15   ar
    17    15    16   ar
    18    16    17   ar
    19    17    18   ar
    20    18    19   ar
    21    19    20   ar
    22    20    21   ar
    23    21    22   ar
    24    22    23   ar
    25    23    24   ar
    26     7     8   ar
    27     8     9   ar
    28     9    10   ar
    29    10    11   ar
    30    11     2   ar
    31    30    25    1
    32    11     6   ar
    33    17    12   ar
    34    24    19   ar
    35    24    16   ar
