@<TRIPOS>MOLECULE
*****
 33 37 0 0 0
SMALL
GASTEIGER

@<TRIPOS>ATOM
      1 C         140.5470  140.1004  169.1139 C.3     1  UNL1        0.0438
      2 C         139.2949  140.6692  169.7128 C.3     1  UNL1        0.0038
      3 C         139.2264  139.8853  168.4358 C.3     1  UNL1        0.0037
      4 C         142.0323  139.8962  169.1596 C.3     1  UNL1        0.2053
      5 O         142.6950  138.9855  168.1689 O.3     1  UNL1       -0.4754
      6 C         143.8909  140.5510  164.1231 C.ar    1  UNL1        0.0810
      7 C         144.0992  139.1040  164.4589 C.ar    1  UNL1        0.0099
      8 C         143.7006  138.5822  165.8075 C.ar    1  UNL1        0.0372
      9 C         143.0937  139.5074  166.8203 C.ar    1  UNL1        0.1408
     10 C         142.8854  140.9544  166.4844 C.ar    1  UNL1        0.0666
     11 C         143.2840  141.4762  165.1359 C.ar    1  UNL1        0.1475
     12 F         143.0757  142.9232  164.8000 F       1  UNL1       -0.2039
     13 O         145.6712  141.6157  162.5587 O.2     1  UNL1       -0.2701
     14 C         144.2896  141.0729  162.7744 C.2     1  UNL1        0.2480
     15 N         143.3067  141.0519  161.6416 N.am    1  UNL1       -0.3024
     16 H         142.3999  140.6956  161.7832 H       1  UNL1        0.1497
     17 C         143.7053  141.5738  160.2929 C.3     1  UNL1        0.0720
     18 C         144.1004  141.3230  158.8678 C.3     1  UNL1        0.0213
     19 C         144.0006  142.7285  159.3822 C.3     1  UNL1        0.0213
     20 C         138.4244  139.3085  167.3071 C.3     1  UNL1        0.0002
     21 C         139.0520  139.1283  165.9566 C.3     1  UNL1        0.0034
     22 C         139.1867  137.7546  165.3694 C.3     1  UNL1        0.0216
     23 C         139.8142  137.5744  164.0190 C.3     1  UNL1        0.0936
     24 N         140.3070  138.7679  163.2557 N.pl3   1  UNL1       -0.2782
     25 C         140.1723  140.1416  163.8429 C.3     1  UNL1        0.0936
     26 C         139.5448  140.3218  165.1934 C.3     1  UNL1        0.0216
     27 C         140.9346  138.5878  161.9053 C.ar    1  UNL1        0.2202
     28 N         140.2570  139.1356  160.6843 N.ar    1  UNL1       -0.2112
     29 C         140.8846  138.9554  159.3338 C.ar    1  UNL1        0.1147
     30 C         142.1896  138.2274  159.2043 C.ar    1  UNL1        0.0960
     31 CL        142.8172  138.0473  157.8539 Cl      1  UNL1       -0.0790
     32 C         142.8671  137.6796  160.4253 C.ar    1  UNL1        0.1147
     33 N         142.2396  137.8598  161.7758 N.ar    1  UNL1       -0.2112
@<TRIPOS>BOND
     1    13    14    2
     2    14    15   am
     3    15    17    1
     4    17    18    1
     5    18    19    1
     6    14     6    1
     7     6     7   ar
     8     7     8   ar
     9     8     9   ar
    10     9     5    1
    11     5     4    1
    12     4     1    1
    13     1     2    1
    14     2     3    1
    15     3    20    1
    16    20    21    1
    17    21    22    1
    18    22    23    1
    19    23    24    1
    20    24    27    1
    21    27    28   ar
    22    28    29   ar
    23    29    30   ar
    24    30    31    1
    25    30    32   ar
    26    32    33   ar
    27    24    25    1
    28    25    26    1
    29     9    10   ar
    30    10    11   ar
    31    11    12    1
    32    19    17    1
    33    11     6   ar
    34     3     1    1
    35    26    21    1
    36    33    27   ar
    37    15    16    1
@<TRIPOS>MOLECULE
*****
 33 37 0 0 0
SMALL
GASTEIGER

@<TRIPOS>ATOM
      1 C         140.7234  140.0676  169.0406 C.3     1  UNL1        0.0438
      2 C         139.7151  141.1761  169.1089 C.3     1  UNL1        0.0038
      3 C         139.4032  139.9247  168.3429 C.3     1  UNL1        0.0037
      4 C         142.0677  139.5102  169.4040 C.3     1  UNL1        0.2053
      5 O         142.9731  138.9774  168.3333 O.3     1  UNL1       -0.4754
      6 C         142.4219  140.2870  164.0635 C.ar    1  UNL1        0.0810
      7 C         142.6284  141.3099  165.1410 C.ar    1  UNL1        0.0099
      8 C         142.8121  140.8733  166.5642 C.ar    1  UNL1        0.0372
      9 C         142.7893  139.4139  166.9100 C.ar    1  UNL1        0.1408
     10 C         142.5828  138.3910  165.8325 C.ar    1  UNL1        0.0666
     11 C         142.3991  138.8275  164.4093 C.ar    1  UNL1        0.1475
     12 F         142.1925  137.8046  163.3317 F       1  UNL1       -0.2039
     13 O         143.0242  140.0640  161.5461 O.2     1  UNL1       -0.2701
     14 C         142.2381  140.7235  162.6402 C.2     1  UNL1        0.2480
     15 N         141.2683  141.8194  162.3111 N.am    1  UNL1       -0.3024
     16 H         140.7524  142.2523  163.0292 H       1  UNL1        0.1497
     17 C         141.0846  142.2559  160.8878 C.3     1  UNL1        0.0720
     18 C         141.3926  142.0926  159.4289 C.3     1  UNL1        0.0213
     19 C         140.4583  143.1753  159.8815 C.3     1  UNL1        0.0213
     20 C         138.4609  139.1196  167.4980 C.3     1  UNL1        0.0002
     21 C         138.5613  139.1746  166.0023 C.3     1  UNL1        0.0034
     22 C         138.4015  140.4835  165.2875 C.3     1  UNL1        0.0216
     23 C         138.5018  140.5385  163.7919 C.3     1  UNL1        0.0936
     24 N         138.7620  139.2844  163.0111 N.pl3   1  UNL1       -0.2782
     25 C         138.9218  137.9755  163.7259 C.3     1  UNL1        0.0936
     26 C         138.8214  137.9205  165.2215 C.3     1  UNL1        0.0216
     27 C         138.8623  139.3394  161.5154 C.ar    1  UNL1        0.2202
     28 N         139.8972  138.5204  160.8026 N.ar    1  UNL1       -0.2112
     29 C         139.9975  138.5753  159.3070 C.ar    1  UNL1        0.1147
     30 C         139.0630  139.4493  158.5242 C.ar    1  UNL1        0.0960
     31 CL        139.1633  139.5042  157.0285 Cl      1  UNL1       -0.0790
     32 C         138.0281  140.2683  159.2370 C.ar    1  UNL1        0.1147
     33 N         137.9278  140.2133  160.7327 N.ar    1  UNL1       -0.2112
@<TRIPOS>BOND
     1    13    14    2
     2    14    15   am
     3    15    17    1
     4    17    18    1
     5    18    19    1
     6    14     6    1
     7     6     7   ar
     8     7     8   ar
     9     8     9   ar
    10     9     5    1
    11     5     4    1
    12     4     1    1
    13     1     2    1
    14     2     3    1
    15     3    20    1
    16    20    21    1
    17    21    22    1
    18    22    23    1
    19    23    24    1
    20    24    27    1
    21    27    28   ar
    22    28    29   ar
    23    29    30   ar
    24    30    31    1
    25    30    32   ar
    26    32    33   ar
    27    24    25    1
    28    25    26    1
    29     9    10   ar
    30    10    11   ar
    31    11    12    1
    32    19    17    1
    33    11     6   ar
    34     3     1    1
    35    26    21    1
    36    33    27   ar
    37    15    16    1
@<TRIPOS>MOLECULE
*****
 33 37 0 0 0
SMALL
GASTEIGER

@<TRIPOS>ATOM
      1 C         139.8689  140.9226  169.6044 C.3     1  UNL1        0.0438
      2 C         138.5715  140.2487  169.9398 C.3     1  UNL1        0.0038
      3 C         139.1689  140.0877  168.5734 C.3     1  UNL1        0.0037
      4 C         141.0222  141.7937  170.0060 C.3     1  UNL1        0.2053
      5 O         142.4229  141.3981  169.6432 O.3     1  UNL1       -0.4754
      6 C         143.4241  140.3092  165.3933 C.ar    1  UNL1        0.0810
      7 C         143.3973  141.7493  165.8121 C.ar    1  UNL1        0.0099
      8 C         143.0636  142.1122  167.2287 C.ar    1  UNL1        0.0372
      9 C         142.7566  141.0351  168.2265 C.ar    1  UNL1        0.1408
     10 C         142.7835  139.5950  167.8077 C.ar    1  UNL1        0.0666
     11 C         143.1172  139.2321  166.3911 C.ar    1  UNL1        0.1475
     12 F         143.1441  137.7920  165.9722 F       1  UNL1       -0.2039
     13 O         144.9993  140.4917  163.3352 O.2     1  UNL1       -0.2701
     14 C         143.7579  139.9462  163.9766 C.2     1  UNL1        0.2480
     15 N         142.8503  139.0379  163.2014 N.am    1  UNL1       -0.3024
     16 H         142.0355  138.6799  163.6224 H       1  UNL1        0.1497
     17 C         143.1841  138.6749  161.7847 C.3     1  UNL1        0.0720
     18 C         143.6447  139.0765  160.4149 C.3     1  UNL1        0.0213
     19 C         143.3015  137.6446  160.7008 C.3     1  UNL1        0.0213
     20 C         139.1097  139.5126  167.1893 C.3     1  UNL1        0.0002
     21 C         139.4369  140.3732  166.0050 C.3     1  UNL1        0.0034
     22 C         139.5779  139.7557  164.6453 C.3     1  UNL1        0.0216
     23 C         139.9051  140.6162  163.4611 C.3     1  UNL1        0.0936
     24 N         140.0912  142.0942  163.6365 N.pl3   1  UNL1       -0.2782
     25 C         139.9501  142.7117  164.9961 C.3     1  UNL1        0.0936
     26 C         139.6230  141.8512  166.1804 C.3     1  UNL1        0.0216
     27 C         140.4183  142.9547  162.4522 C.ar    1  UNL1        0.2202
     28 N         141.3520  142.4490  161.3927 N.ar    1  UNL1       -0.2112
     29 C         141.6791  143.3095  160.2084 C.ar    1  UNL1        0.1147
     30 C         141.0726  144.6757  160.0836 C.ar    1  UNL1        0.0960
     31 CL        141.3998  145.5362  158.8994 Cl      1  UNL1       -0.0790
     32 C         140.1389  145.1814  161.1431 C.ar    1  UNL1        0.1147
     33 N         139.8118  144.3209  162.3274 N.ar    1  UNL1       -0.2112
@<TRIPOS>BOND
     1    13    14    2
     2    14    15   am
     3    15    17    1
     4    17    18    1
     5    18    19    1
     6    14     6    1
     7     6     7   ar
     8     7     8   ar
     9     8     9   ar
    10     9     5    1
    11     5     4    1
    12     4     1    1
    13     1     2    1
    14     2     3    1
    15     3    20    1
    16    20    21    1
    17    21    22    1
    18    22    23    1
    19    23    24    1
    20    24    27    1
    21    27    28   ar
    22    28    29   ar
    23    29    30   ar
    24    30    31    1
    25    30    32   ar
    26    32    33   ar
    27    24    25    1
    28    25    26    1
    29     9    10   ar
    30    10    11   ar
    31    11    12    1
    32    19    17    1
    33    11     6   ar
    34     3     1    1
    35    26    21    1
    36    33    27   ar
    37    15    16    1
@<TRIPOS>MOLECULE
*****
 33 37 0 0 0
SMALL
GASTEIGER

@<TRIPOS>ATOM
      1 C         139.2877  139.6611  166.4978 C.3     1  UNL1        0.0438
      2 C         138.0114  138.9021  166.7098 C.3     1  UNL1        0.0038
      3 C         138.8256  138.6693  165.4717 C.3     1  UNL1        0.0037
      4 C         140.2914  140.6719  166.9678 C.3     1  UNL1        0.2053
      5 O         139.9695  142.1354  166.9013 O.3     1  UNL1       -0.4754
      6 C         140.0689  144.2836  162.9484 C.ar    1  UNL1        0.0810
      7 C         141.3456  144.0164  163.6891 C.ar    1  UNL1        0.0099
      8 C         141.3125  143.3003  165.0067 C.ar    1  UNL1        0.0372
      9 C         140.0026  142.8515  165.5836 C.ar    1  UNL1        0.1408
     10 C         138.7259  143.1188  164.8430 C.ar    1  UNL1        0.0666
     11 C         138.7591  143.8349  163.5254 C.ar    1  UNL1        0.1475
     12 F         137.4824  144.1022  162.7847 F       1  UNL1       -0.2039
     13 O         139.2666  146.2282  161.4236 O.2     1  UNL1       -0.2701
     14 C         140.1021  144.9997  161.6308 C.2     1  UNL1        0.2480
     15 N         140.9706  144.4874  160.5204 N.am    1  UNL1       -0.3024
     16 H         141.5190  143.6811  160.6564 H       1  UNL1        0.1497
     17 C         141.0038  145.2035  159.2027 C.3     1  UNL1        0.0720
     18 C         140.2895  145.9206  158.0957 C.3     1  UNL1        0.0213
     19 C         141.7753  145.7267  158.0276 C.3     1  UNL1        0.0213
     20 C         139.0288  137.9624  164.1645 C.3     1  UNL1        0.0002
     21 C         138.7848  138.6870  162.8740 C.3     1  UNL1        0.0034
     22 C         138.0522  139.9960  162.8758 C.3     1  UNL1        0.0216
     23 C         137.8081  140.7206  161.5854 C.3     1  UNL1        0.0936
     24 N         138.2966  140.1364  160.2931 N.pl3   1  UNL1       -0.2782
     25 C         139.0291  138.8274  160.2913 C.3     1  UNL1        0.0936
     26 C         139.2732  138.1028  161.5817 C.3     1  UNL1        0.0216
     27 C         138.0525  140.8610  159.0026 C.ar    1  UNL1        0.2202
     28 N         137.1035  140.2912  157.9904 N.ar    1  UNL1       -0.2112
     29 C         136.8595  141.0159  156.6999 C.ar    1  UNL1        0.1147
     30 C         137.5644  142.3104  156.4217 C.ar    1  UNL1        0.0960
     31 CL        137.3203  143.0350  155.1312 Cl      1  UNL1       -0.0790
     32 C         138.5134  142.8801  157.4340 C.ar    1  UNL1        0.1147
     33 N         138.7574  142.1555  158.7244 N.ar    1  UNL1       -0.2112
@<TRIPOS>BOND
     1    13    14    2
     2    14    15   am
     3    15    17    1
     4    17    18    1
     5    18    19    1
     6    14     6    1
     7     6     7   ar
     8     7     8   ar
     9     8     9   ar
    10     9     5    1
    11     5     4    1
    12     4     1    1
    13     1     2    1
    14     2     3    1
    15     3    20    1
    16    20    21    1
    17    21    22    1
    18    22    23    1
    19    23    24    1
    20    24    27    1
    21    27    28   ar
    22    28    29   ar
    23    29    30   ar
    24    30    31    1
    25    30    32   ar
    26    32    33   ar
    27    24    25    1
    28    25    26    1
    29     9    10   ar
    30    10    11   ar
    31    11    12    1
    32    19    17    1
    33    11     6   ar
    34     3     1    1
    35    26    21    1
    36    33    27   ar
    37    15    16    1
@<TRIPOS>MOLECULE
*****
 33 37 0 0 0
SMALL
GASTEIGER

@<TRIPOS>ATOM
      1 C         140.6095  140.1359  169.4127 C.3     1  UNL1        0.0438
      2 C         141.8247  140.3361  170.2689 C.3     1  UNL1        0.0038
      3 C         141.9457  139.6389  168.9463 C.3     1  UNL1        0.0037
      4 C         139.1364  140.3073  169.1876 C.3     1  UNL1        0.2053
      5 O         138.3789  139.2971  168.3779 O.3     1  UNL1       -0.4754
      6 C         139.2701  138.8009  163.9950 C.ar    1  UNL1        0.0810
      7 C         138.7464  137.6416  164.7898 C.ar    1  UNL1        0.0099
      8 C         138.4493  137.8070  166.2507 C.ar    1  UNL1        0.0372
      9 C         138.6760  139.1317  166.9169 C.ar    1  UNL1        0.1408
     10 C         139.1997  140.2910  166.1221 C.ar    1  UNL1        0.0666
     11 C         139.4967  140.1256  164.6612 C.ar    1  UNL1        0.1475
     12 F         140.0205  141.2850  163.8663 F       1  UNL1       -0.2039
     13 O         140.4894  137.5452  162.0749 O.2     1  UNL1       -0.2701
     14 C         139.5672  138.6355  162.5340 C.2     1  UNL1        0.2480
     15 N         138.9421  139.5604  161.5322 N.am    1  UNL1       -0.3024
     16 H         138.3368  140.2760  161.8335 H       1  UNL1        0.1497
     17 C         139.2392  139.3950  160.0711 C.3     1  UNL1        0.0720
     18 C         139.7958  138.5780  158.9431 C.3     1  UNL1        0.0213
     19 C         139.1971  139.9256  158.6688 C.3     1  UNL1        0.0213
     20 C         142.7870  138.9494  167.9135 C.3     1  UNL1        0.0002
     21 C         142.8954  139.5211  166.5309 C.3     1  UNL1        0.0034
     22 C         142.9883  141.0057  166.3383 C.3     1  UNL1        0.0216
     23 C         143.0967  141.5773  164.9558 C.3     1  UNL1        0.0936
     24 N         143.1122  140.6643  163.7658 N.pl3   1  UNL1       -0.2782
     25 C         143.0192  139.1797  163.9584 C.3     1  UNL1        0.0936
     26 C         142.9108  138.6080  165.3409 C.3     1  UNL1        0.0216
     27 C         143.2206  141.2360  162.3832 C.ar    1  UNL1        0.2202
     28 N         144.4533  141.9878  161.9770 N.ar    1  UNL1       -0.2112
     29 C         144.5617  142.5595  160.5945 C.ar    1  UNL1        0.1147
     30 C         143.4374  142.3793  159.6181 C.ar    1  UNL1        0.0960
     31 CL        143.5458  142.9509  158.2356 Cl      1  UNL1       -0.0790
     32 C         142.2047  141.6274  160.0243 C.ar    1  UNL1        0.1147
     33 N         142.0963  141.0558  161.4069 N.ar    1  UNL1       -0.2112
@<TRIPOS>BOND
     1    13    14    2
     2    14    15   am
     3    15    17    1
     4    17    18    1
     5    18    19    1
     6    14     6    1
     7     6     7   ar
     8     7     8   ar
     9     8     9   ar
    10     9     5    1
    11     5     4    1
    12     4     1    1
    13     1     2    1
    14     2     3    1
    15     3    20    1
    16    20    21    1
    17    21    22    1
    18    22    23    1
    19    23    24    1
    20    24    27    1
    21    27    28   ar
    22    28    29   ar
    23    29    30   ar
    24    30    31    1
    25    30    32   ar
    26    32    33   ar
    27    24    25    1
    28    25    26    1
    29     9    10   ar
    30    10    11   ar
    31    11    12    1
    32    19    17    1
    33    11     6   ar
    34     3     1    1
    35    26    21    1
    36    33    27   ar
    37    15    16    1
@<TRIPOS>MOLECULE
*****
 33 37 0 0 0
SMALL
GASTEIGER

@<TRIPOS>ATOM
      1 C         142.6025  140.7015  167.5666 C.3     1  UNL1        0.0438
      2 C         142.1436  141.9486  168.2624 C.3     1  UNL1        0.0038
      3 C         143.0128  142.0463  167.0438 C.3     1  UNL1        0.0037
      4 C         142.6306  139.2051  167.4667 C.3     1  UNL1        0.2053
      5 O         143.6077  138.5329  166.5484 O.3     1  UNL1       -0.4754
      6 C         143.8987  139.8147  162.2447 C.ar    1  UNL1        0.0810
      7 C         144.9845  140.1827  163.2118 C.ar    1  UNL1        0.0099
      8 C         144.8875  139.7555  164.6464 C.ar    1  UNL1        0.0372
      9 C         143.7047  138.9602  165.1138 C.ar    1  UNL1        0.1408
     10 C         142.6189  138.5921  164.1466 C.ar    1  UNL1        0.0666
     11 C         142.7159  139.0194  162.7120 C.ar    1  UNL1        0.1475
     12 F         141.6301  138.6513  161.7447 F       1  UNL1       -0.2039
     13 O         143.9570  139.2149  159.7174 O.2     1  UNL1       -0.2701
     14 C         143.9957  140.2419  160.8100 C.2     1  UNL1        0.2480
     15 N         144.1314  141.6961  160.4681 N.am    1  UNL1       -0.3024
     16 H         144.1568  142.3701  161.1852 H       1  UNL1        0.1497
     17 C         144.2284  142.1233  159.0334 C.3     1  UNL1        0.0720
     18 C         145.0413  142.3170  157.7878 C.3     1  UNL1        0.0213
     19 C         143.5834  142.6696  157.7942 C.3     1  UNL1        0.0213
     20 C         143.7515  142.8791  166.0384 C.3     1  UNL1        0.0002
     21 C         143.1436  143.1452  164.6932 C.3     1  UNL1        0.0034
     22 C         143.7092  144.2209  163.8141 C.3     1  UNL1        0.0216
     23 C         143.1013  144.4870  162.4689 C.3     1  UNL1        0.0936
     24 N         141.9278  143.6774  162.0028 N.pl3   1  UNL1       -0.2782
     25 C         141.3622  142.6017  162.8818 C.3     1  UNL1        0.0936
     26 C         141.9701  142.3356  164.2271 C.3     1  UNL1        0.0216
     27 C         141.3199  143.9435  160.6575 C.ar    1  UNL1        0.2202
     28 N         140.3275  142.9791  160.0789 N.ar    1  UNL1       -0.2112
     29 C         139.7196  143.2452  158.7337 C.ar    1  UNL1        0.1147
     30 C         140.1041  144.4758  157.9671 C.ar    1  UNL1        0.0960
     31 CL        139.4962  144.7419  156.6218 Cl      1  UNL1       -0.0790
     32 C         141.0965  145.4402  158.5457 C.ar    1  UNL1        0.1147
     33 N         141.7044  145.1741  159.8909 N.ar    1  UNL1       -0.2112
@<TRIPOS>BOND
     1    13    14    2
     2    14    15   am
     3    15    17    1
     4    17    18    1
     5    18    19    1
     6    14     6    1
     7     6     7   ar
     8     7     8   ar
     9     8     9   ar
    10     9     5    1
    11     5     4    1
    12     4     1    1
    13     1     2    1
    14     2     3    1
    15     3    20    1
    16    20    21    1
    17    21    22    1
    18    22    23    1
    19    23    24    1
    20    24    27    1
    21    27    28   ar
    22    28    29   ar
    23    29    30   ar
    24    30    31    1
    25    30    32   ar
    26    32    33   ar
    27    24    25    1
    28    25    26    1
    29     9    10   ar
    30    10    11   ar
    31    11    12    1
    32    19    17    1
    33    11     6   ar
    34     3     1    1
    35    26    21    1
    36    33    27   ar
    37    15    16    1
@<TRIPOS>MOLECULE
*****
 33 37 0 0 0
SMALL
GASTEIGER

@<TRIPOS>ATOM
      1 C         140.9465  139.8493  168.0319 C.3     1  UNL1        0.0438
      2 C         142.3645  139.9101  168.5171 C.3     1  UNL1        0.0038
      3 C         142.0781  139.6375  167.0702 C.3     1  UNL1        0.0037
      4 C         139.4745  139.9364  168.3069 C.3     1  UNL1        0.2053
      5 O         138.5145  139.0865  167.5286 O.3     1  UNL1       -0.4754
      6 C         138.5571  139.1874  163.0299 C.ar    1  UNL1        0.0810
      7 C         138.8917  137.9175  163.7548 C.ar    1  UNL1        0.0099
      8 C         138.8775  137.8839  165.2543 C.ar    1  UNL1        0.0372
      9 C         138.5287  139.1201  166.0289 C.ar    1  UNL1        0.1408
     10 C         138.1941  140.3900  165.3041 C.ar    1  UNL1        0.0666
     11 C         138.2083  140.4236  163.8045 C.ar    1  UNL1        0.1475
     12 F         137.8737  141.6935  163.0796 F       1  UNL1       -0.2039
     13 O         137.3638  139.6986  160.7794 O.2     1  UNL1       -0.2701
     14 C         138.5713  139.2210  161.5303 C.2     1  UNL1        0.2480
     15 N         139.7930  138.7771  160.7817 N.am    1  UNL1       -0.3024
     16 H         140.5855  138.4637  161.2745 H       1  UNL1        0.1497
     17 C         139.8072  138.8108  159.2821 C.3     1  UNL1        0.0720
     18 C         139.7892  139.5892  158.0000 C.3     1  UNL1        0.0213
     19 C         139.8498  138.0908  157.9669 C.3     1  UNL1        0.0213
     20 C         142.5659  139.3578  165.6797 C.3     1  UNL1        0.0002
     21 C         142.2285  140.3005  164.5627 C.3     1  UNL1        0.0034
     22 C         141.5975  141.6271  164.8657 C.3     1  UNL1        0.0216
     23 C         141.2601  142.5697  163.7487 C.3     1  UNL1        0.0936
     24 N         141.5537  142.1857  162.3287 N.pl3   1  UNL1       -0.2782
     25 C         142.1847  140.8591  162.0258 C.3     1  UNL1        0.0936
     26 C         142.5221  139.9164  163.1428 C.3     1  UNL1        0.0216
     27 C         141.2163  143.1283  161.2118 C.ar    1  UNL1        0.2202
     28 N         140.6488  144.4824  161.5187 N.ar    1  UNL1       -0.2112
     29 C         140.3113  145.4250  160.4018 C.ar    1  UNL1        0.1147
     30 C         140.5415  145.0135  158.9778 C.ar    1  UNL1        0.0960
     31 CL        140.2040  145.9561  157.8608 Cl      1  UNL1       -0.0790
     32 C         141.1090  143.6594  158.6708 C.ar    1  UNL1        0.1147
     33 N         141.4464  142.7168  159.7878 N.ar    1  UNL1       -0.2112
@<TRIPOS>BOND
     1    13    14    2
     2    14    15   am
     3    15    17    1
     4    17    18    1
     5    18    19    1
     6    14     6    1
     7     6     7   ar
     8     7     8   ar
     9     8     9   ar
    10     9     5    1
    11     5     4    1
    12     4     1    1
    13     1     2    1
    14     2     3    1
    15     3    20    1
    16    20    21    1
    17    21    22    1
    18    22    23    1
    19    23    24    1
    20    24    27    1
    21    27    28   ar
    22    28    29   ar
    23    29    30   ar
    24    30    31    1
    25    30    32   ar
    26    32    33   ar
    27    24    25    1
    28    25    26    1
    29     9    10   ar
    30    10    11   ar
    31    11    12    1
    32    19    17    1
    33    11     6   ar
    34     3     1    1
    35    26    21    1
    36    33    27   ar
    37    15    16    1
@<TRIPOS>MOLECULE
*****
 33 37 0 0 0
SMALL
GASTEIGER

@<TRIPOS>ATOM
      1 C         139.0956  139.3839  166.9840 C.3     1  UNL1        0.0438
      2 C         137.7282  138.7717  166.9121 C.3     1  UNL1        0.0038
      3 C         138.7253  138.5098  165.8226 C.3     1  UNL1        0.0037
      4 C         140.0989  140.2421  167.6961 C.3     1  UNL1        0.2053
      5 O         141.2502  140.8351  166.9392 O.3     1  UNL1       -0.4754
      6 C         140.5034  143.1218  163.1361 C.ar    1  UNL1        0.0810
      7 C         140.1551  143.7344  164.4602 C.ar    1  UNL1        0.0099
      8 C         140.4040  142.9721  165.7279 C.ar    1  UNL1        0.0372
      9 C         141.0013  141.5973  165.6714 C.ar    1  UNL1        0.1408
     10 C         141.3496  140.9848  164.3473 C.ar    1  UNL1        0.0666
     11 C         141.1007  141.7470  163.0797 C.ar    1  UNL1        0.1475
     12 F         141.4491  141.1344  161.7554 F       1  UNL1       -0.2039
     13 O         138.8570  144.2790  161.4928 O.2     1  UNL1       -0.2701
     14 C         140.2545  143.8840  161.8683 C.2     1  UNL1        0.2480
     15 N         141.4031  144.2511  160.9762 N.am    1  UNL1       -0.3024
     16 H         142.3203  143.9919  161.2227 H       1  UNL1        0.1497
     17 C         141.1542  145.0134  159.7084 C.3     1  UNL1        0.0720
     18 C         141.6112  145.4644  158.3528 C.3     1  UNL1        0.0213
     19 C         140.2660  145.8825  158.8682 C.3     1  UNL1        0.0213
     20 C         139.0873  137.8540  164.5231 C.3     1  UNL1        0.0002
     21 C         138.8680  138.5810  163.2295 C.3     1  UNL1        0.0034
     22 C         139.5334  138.0971  161.9752 C.3     1  UNL1        0.0216
     23 C         139.3141  138.8241  160.6816 C.3     1  UNL1        0.0936
     24 N         138.4296  140.0349  160.6422 N.pl3   1  UNL1       -0.2782
     25 C         137.7643  140.5187  161.8965 C.3     1  UNL1        0.0936
     26 C         137.9835  139.7917  163.1901 C.3     1  UNL1        0.0216
     27 C         138.2104  140.7618  159.3486 C.ar    1  UNL1        0.2202
     28 N         137.1911  140.2597  158.3695 N.ar    1  UNL1       -0.2112
     29 C         136.9719  140.9866  157.0758 C.ar    1  UNL1        0.1147
     30 C         137.7720  142.2157  156.7613 C.ar    1  UNL1        0.0960
     31 CL        137.5528  142.9427  155.4677 Cl      1  UNL1       -0.0790
     32 C         138.7914  142.7179  157.7404 C.ar    1  UNL1        0.1147
     33 N         139.0106  141.9909  159.0341 N.ar    1  UNL1       -0.2112
@<TRIPOS>BOND
     1    13    14    2
     2    14    15   am
     3    15    17    1
     4    17    18    1
     5    18    19    1
     6    14     6    1
     7     6     7   ar
     8     7     8   ar
     9     8     9   ar
    10     9     5    1
    11     5     4    1
    12     4     1    1
    13     1     2    1
    14     2     3    1
    15     3    20    1
    16    20    21    1
    17    21    22    1
    18    22    23    1
    19    23    24    1
    20    24    27    1
    21    27    28   ar
    22    28    29   ar
    23    29    30   ar
    24    30    31    1
    25    30    32   ar
    26    32    33   ar
    27    24    25    1
    28    25    26    1
    29     9    10   ar
    30    10    11   ar
    31    11    12    1
    32    19    17    1
    33    11     6   ar
    34     3     1    1
    35    26    21    1
    36    33    27   ar
    37    15    16    1
@<TRIPOS>MOLECULE
*****
 33 37 0 0 0
SMALL
GASTEIGER

@<TRIPOS>ATOM
      1 C         139.9535  141.0496  168.2769 C.3     1  UNL1        0.0438
      2 C         139.4843  140.1150  169.3521 C.3     1  UNL1        0.0038
      3 C         139.0843  139.8786  167.9259 C.3     1  UNL1        0.0037
      4 C         140.7264  142.2654  167.8586 C.3     1  UNL1        0.2053
      5 O         140.0089  143.4457  167.2740 O.3     1  UNL1       -0.4754
      6 C         140.0363  144.1178  162.8245 C.ar    1  UNL1        0.0810
      7 C         138.8763  144.5938  163.6477 C.ar    1  UNL1        0.0099
      8 C         138.8672  144.3698  165.1309 C.ar    1  UNL1        0.0372
      9 C         140.0181  143.6697  165.7907 C.ar    1  UNL1        0.1408
     10 C         141.1781  143.1938  164.9675 C.ar    1  UNL1        0.0666
     11 C         141.1872  143.4178  163.4844 C.ar    1  UNL1        0.1475
     12 F         142.3473  142.9418  162.6611 F       1  UNL1       -0.2039
     13 O         139.0143  143.6796  160.4764 O.2     1  UNL1       -0.2701
     14 C         140.0455  144.3418  161.3413 C.2     1  UNL1        0.2480
     15 N         141.0859  145.2281  160.7231 N.am    1  UNL1       -0.3024
     16 H         141.7627  145.6627  161.2908 H       1  UNL1        0.1497
     17 C         141.0951  145.4521  159.2399 C.3     1  UNL1        0.0720
     18 C         140.3874  145.8686  157.9847 C.3     1  UNL1        0.0213
     19 C         141.8186  145.4236  157.9263 C.3     1  UNL1        0.0213
     20 C         138.3514  139.0661  166.8999 C.3     1  UNL1        0.0002
     21 C         138.7147  139.1854  165.4495 C.3     1  UNL1        0.0034
     22 C         139.3569  138.0305  164.7397 C.3     1  UNL1        0.0216
     23 C         139.7202  138.1498  163.2893 C.3     1  UNL1        0.0936
     24 N         139.4414  139.4240  162.5486 N.pl3   1  UNL1       -0.2782
     25 C         138.7992  140.5789  163.2584 C.3     1  UNL1        0.0936
     26 C         138.4359  140.4596  164.7088 C.3     1  UNL1        0.0216
     27 C         139.8047  139.5433  161.0982 C.ar    1  UNL1        0.2202
     28 N         139.3163  138.5202  160.1161 N.ar    1  UNL1       -0.2112
     29 C         139.6796  138.6395  158.6656 C.ar    1  UNL1        0.1147
     30 C         140.5313  139.7819  158.1973 C.ar    1  UNL1        0.0960
     31 CL        140.8946  139.9012  156.7469 Cl      1  UNL1       -0.0790
     32 C         141.0196  140.8051  159.1794 C.ar    1  UNL1        0.1147
     33 N         140.6563  140.6858  160.6298 N.ar    1  UNL1       -0.2112
@<TRIPOS>BOND
     1    13    14    2
     2    14    15   am
     3    15    17    1
     4    17    18    1
     5    18    19    1
     6    14     6    1
     7     6     7   ar
     8     7     8   ar
     9     8     9   ar
    10     9     5    1
    11     5     4    1
    12     4     1    1
    13     1     2    1
    14     2     3    1
    15     3    20    1
    16    20    21    1
    17    21    22    1
    18    22    23    1
    19    23    24    1
    20    24    27    1
    21    27    28   ar
    22    28    29   ar
    23    29    30   ar
    24    30    31    1
    25    30    32   ar
    26    32    33   ar
    27    24    25    1
    28    25    26    1
    29     9    10   ar
    30    10    11   ar
    31    11    12    1
    32    19    17    1
    33    11     6   ar
    34     3     1    1
    35    26    21    1
    36    33    27   ar
    37    15    16    1
