@<TRIPOS>MOLECULE
*****
 36 41 0 0 0
SMALL
GASTEIGER

@<TRIPOS>ATOM
      1 C         139.5483  140.1203  158.7655 C.3     1  UNL1        0.0730
      2 C         139.2735  139.7720  166.1743 C.ar    1  UNL1        0.0532
      3 C         139.0174  138.3120  165.9443 C.ar    1  UNL1        0.0043
      4 C         138.9602  137.7717  164.5462 C.ar    1  UNL1       -0.0044
      5 C         139.1591  138.6914  163.3780 C.ar    1  UNL1       -0.0247
      6 C         139.4152  140.1513  163.6080 C.ar    1  UNL1       -0.0245
      7 C         139.4724  140.6917  165.0061 C.ar    1  UNL1        0.0001
      8 C         139.6389  141.2329  162.5929 C.3     1  UNL1        0.0433
      9 C         139.6616  141.1215  161.0972 C.3     1  UNL1        0.0768
     10 N         139.4664  139.9012  160.2472 N.3     1  UNL1       -0.2720
     11 C         139.2002  138.4908  160.6828 C.3     1  UNL1        0.0768
     12 C         139.0634  137.9524  162.0762 C.3     1  UNL1        0.0433
     13 C         140.0758  142.9836  170.2880 C.3     1  UNL1        0.0742
     14 C         139.6994  141.7884  169.4633 C.ar    1  UNL1        0.1442
     15 C         139.1379  140.4990  169.9846 C.ar    1  UNL1        0.1349
     16 N         138.9099  139.5866  168.8160 N.ar    1  UNL1       -0.2070
     17 C         139.3306  140.3122  167.5724 C.ar    1  UNL1        0.2293
     18 O         139.8186  141.6731  167.9725 O.2     1  UNL1       -0.4389
     19 C         140.7773  140.7360  158.1651 C.3     1  UNL1        0.0294
     20 C         141.8280  139.8625  157.5462 C.3     1  UNL1        0.0666
     21 S         143.0607  139.5067  158.3232 S.3     1  UNL1       -0.0756
     22 C         142.9453  139.0671  159.7527 C.ar    1  UNL1        0.1933
     23 N         142.7055  137.6645  160.2272 N.ar    1  UNL1       -0.1221
     24 N         142.6614  137.6834  161.7264 N.ar    1  UNL1       -0.1267
     25 C         142.8740  139.0978  162.1785 C.ar    1  UNL1        0.1846
     26 N         143.0494  139.9530  160.9587 N.ar    1  UNL1       -0.2872
     27 C         143.2872  141.4340  160.9470 C.3     1  UNL1        0.1340
     28 C         142.9056  139.5735  163.6008 C.2     1  UNL1        0.1167
     29 C         142.7856  138.7107  164.8219 C.2     1  UNL1        0.0234
     30 C         142.8686  139.5995  166.0274 C.2     1  UNL1        0.0155
     31 C         142.8102  139.3054  167.4972 C.2     1  UNL1        0.0009
     32 C         142.9233  140.4233  168.4907 C.2     1  UNL1       -0.0041
     33 C         143.0946  141.8355  168.0147 C.2     1  UNL1       -0.0198
     34 C         143.1529  142.1296  166.5450 C.3     1  UNL1        0.0717
     35 C         143.0399  141.0115  165.5513 C.2     1  UNL1        0.0635
     36 N         143.0628  140.9954  164.0516 N.2     1  UNL1       -0.2462
@<TRIPOS>BOND
     1    13    14    1
     2    14    15   ar
     3    15    16   ar
     4    16    17   ar
     5    17     2    1
     6     2     3   ar
     7     3     4   ar
     8     4     5   ar
     9     5     6   ar
    10     6     7   ar
    11     6     8    1
    12     8     9    1
    13     9    10    1
    14    10     1    1
    15     1    19    1
    16    19    20    1
    17    20    21    1
    18    21    22    1
    19    22    23   ar
    20    23    24   ar
    21    24    25   ar
    22    25    28    1
    23    28    29    2
    24    29    30    1
    25    30    31    2
    26    31    32    1
    27    32    33    2
    28    33    34    1
    29    34    35    1
    30    35    36    2
    31    25    26   ar
    32    26    27    1
    33    10    11    1
    34    11    12    1
    35    17    18   ar
    36    18    14   ar
    37     7     2   ar
    38    26    22   ar
    39    12     5    1
    40    36    28    1
    41    35    30    1
@<TRIPOS>MOLECULE
*****
 36 41 0 0 0
SMALL
GASTEIGER

@<TRIPOS>ATOM
      1 C         144.9353  142.6025  159.9705 C.3     1  UNL1        0.0730
      2 C         142.8276  139.8955  166.5519 C.ar    1  UNL1        0.0532
      3 C         142.6736  138.6060  165.8013 C.ar    1  UNL1        0.0043
      4 C         142.9810  138.5509  164.3341 C.ar    1  UNL1       -0.0044
      5 C         143.4423  139.7854  163.6176 C.ar    1  UNL1       -0.0247
      6 C         143.5963  141.0747  164.3683 C.ar    1  UNL1       -0.0245
      7 C         143.2890  141.1299  165.8354 C.ar    1  UNL1        0.0001
      8 C         144.0393  142.4112  163.8507 C.3     1  UNL1        0.0433
      9 C         144.4377  142.7880  162.4544 C.3     1  UNL1        0.0768
     10 N         144.4915  141.9217  161.2312 N.3     1  UNL1       -0.2720
     11 C         144.1602  140.4644  161.1019 C.3     1  UNL1        0.0768
     12 C         143.6933  139.5137  162.1639 C.3     1  UNL1        0.0433
     13 C         141.0079  141.4904  171.2451 C.3     1  UNL1        0.0742
     14 C         141.6838  140.6836  170.1762 C.ar    1  UNL1        0.1442
     15 C         142.4106  139.3869  170.3773 C.ar    1  UNL1        0.1349
     16 N         142.9276  138.9338  169.0440 N.ar    1  UNL1       -0.2070
     17 C         142.5203  139.9505  168.0191 C.ar    1  UNL1        0.2293
     18 O         141.7516  141.0319  168.7189 O.2     1  UNL1       -0.4389
     19 C         144.2146  142.3385  158.6817 C.3     1  UNL1        0.0294
     20 C         143.4771  143.4488  157.9936 C.3     1  UNL1        0.0666
     21 S         142.0740  143.7844  158.4040 S.3     1  UNL1       -0.0756
     22 C         141.6549  143.6327  159.8363 C.ar    1  UNL1        0.1933
     23 N         141.6822  144.7082  160.8816 N.ar    1  UNL1       -0.1221
     24 N         141.1791  144.1191  162.1661 N.ar    1  UNL1       -0.1267
     25 C         140.8409  142.6795  161.9146 C.ar    1  UNL1        0.1846
     26 N         141.1350  142.3789  160.4747 N.ar    1  UNL1       -0.2872
     27 C         140.9429  141.0566  159.7931 C.3     1  UNL1        0.1340
     28 C         140.3031  141.7106  162.9256 C.2     1  UNL1        0.1167
     29 C         139.8972  140.2916  162.6578 C.2     1  UNL1        0.0234
     30 C         139.4200  139.6946  163.9485 C.2     1  UNL1        0.0155
     31 C         138.8987  138.3305  164.2914 C.2     1  UNL1        0.0009
     32 C         138.4885  138.0165  165.6995 C.2     1  UNL1       -0.0041
     33 C         138.5994  139.0665  166.7650 C.2     1  UNL1       -0.0198
     34 C         139.1207  140.4306  166.4222 C.3     1  UNL1        0.0717
     35 C         139.5310  140.7446  165.0139 C.2     1  UNL1        0.0635
     36 N         140.0768  141.9906  164.3817 N.2     1  UNL1       -0.2462
@<TRIPOS>BOND
     1    13    14    1
     2    14    15   ar
     3    15    16   ar
     4    16    17   ar
     5    17     2    1
     6     2     3   ar
     7     3     4   ar
     8     4     5   ar
     9     5     6   ar
    10     6     7   ar
    11     6     8    1
    12     8     9    1
    13     9    10    1
    14    10     1    1
    15     1    19    1
    16    19    20    1
    17    20    21    1
    18    21    22    1
    19    22    23   ar
    20    23    24   ar
    21    24    25   ar
    22    25    28    1
    23    28    29    2
    24    29    30    1
    25    30    31    2
    26    31    32    1
    27    32    33    2
    28    33    34    1
    29    34    35    1
    30    35    36    2
    31    25    26   ar
    32    26    27    1
    33    10    11    1
    34    11    12    1
    35    17    18   ar
    36    18    14   ar
    37     7     2   ar
    38    26    22   ar
    39    12     5    1
    40    36    28    1
    41    35    30    1
@<TRIPOS>MOLECULE
*****
 36 41 0 0 0
SMALL
GASTEIGER

@<TRIPOS>ATOM
      1 C         141.9257  145.0217  158.6004 C.3     1  UNL1        0.0730
      2 C         140.7172  143.0011  165.6391 C.ar    1  UNL1        0.0532
      3 C         139.6520  144.0565  165.5994 C.ar    1  UNL1        0.0043
      4 C         139.4257  144.8469  164.3447 C.ar    1  UNL1       -0.0044
      5 C         140.2647  144.5818  163.1297 C.ar    1  UNL1       -0.0247
      6 C         141.3297  143.5264  163.1695 C.ar    1  UNL1       -0.0245
      7 C         141.5561  142.7361  164.4241 C.ar    1  UNL1        0.0001
      8 C         142.2704  143.1054  162.0795 C.3     1  UNL1        0.0433
      9 C         142.3782  143.6360  160.6806 C.3     1  UNL1        0.0768
     10 N         141.5720  144.7184  160.0262 N.3     1  UNL1       -0.2720
     11 C         140.4589  145.5377  160.6090 C.3     1  UNL1        0.0768
     12 C         139.8770  145.4769  161.9902 C.3     1  UNL1        0.0433
     13 C         142.5320  139.3985  169.0462 C.3     1  UNL1        0.0742
     14 C         141.7776  140.5549  168.4598 C.ar    1  UNL1        0.1442
     15 C         140.8057  141.4343  169.1891 C.ar    1  UNL1        0.1349
     16 N         140.2901  142.4578  168.2212 N.ar    1  UNL1       -0.2070
     17 C         140.9434  142.2108  166.8938 C.ar    1  UNL1        0.2293
     18 O         141.8627  141.0347  167.0412 O.2     1  UNL1       -0.4389
     19 C         142.2893  143.9072  157.6644 C.3     1  UNL1        0.0294
     20 C         141.3218  143.4729  156.6036 C.3     1  UNL1        0.0666
     21 S         140.3616  142.3536  156.8773 S.3     1  UNL1       -0.0756
     22 C         139.6611  142.2731  158.2012 C.ar    1  UNL1        0.1933
     23 N         138.6142  143.2224  158.7039 N.ar    1  UNL1       -0.1221
     24 N         138.1906  142.7653  160.0683 N.ar    1  UNL1       -0.1267
     25 C         138.9758  141.5334  160.4089 C.ar    1  UNL1        0.1846
     26 N         139.8846  141.2292  159.2549 N.ar    1  UNL1       -0.2872
     27 C         140.8478  140.0825  159.1698 C.3     1  UNL1        0.1340
     28 C         138.8706  140.7443  161.6802 C.2     1  UNL1        0.1167
     29 C         138.4547  141.2795  163.0183 C.2     1  UNL1        0.0234
     30 C         138.4900  140.1474  164.0017 C.2     1  UNL1        0.0155
     31 C         138.1801  140.0814  165.4679 C.2     1  UNL1        0.0009
     32 C         138.3078  138.7806  166.2036 C.2     1  UNL1       -0.0041
     33 C         138.7455  137.5456  165.4733 C.2     1  UNL1       -0.0198
     34 C         139.0554  137.6116  164.0072 C.3     1  UNL1        0.0717
     35 C         138.9277  138.9125  163.2714 C.2     1  UNL1        0.0635
     36 N         139.1629  139.2815  161.8366 N.2     1  UNL1       -0.2462
@<TRIPOS>BOND
     1    13    14    1
     2    14    15   ar
     3    15    16   ar
     4    16    17   ar
     5    17     2    1
     6     2     3   ar
     7     3     4   ar
     8     4     5   ar
     9     5     6   ar
    10     6     7   ar
    11     6     8    1
    12     8     9    1
    13     9    10    1
    14    10     1    1
    15     1    19    1
    16    19    20    1
    17    20    21    1
    18    21    22    1
    19    22    23   ar
    20    23    24   ar
    21    24    25   ar
    22    25    28    1
    23    28    29    2
    24    29    30    1
    25    30    31    2
    26    31    32    1
    27    32    33    2
    28    33    34    1
    29    34    35    1
    30    35    36    2
    31    25    26   ar
    32    26    27    1
    33    10    11    1
    34    11    12    1
    35    17    18   ar
    36    18    14   ar
    37     7     2   ar
    38    26    22   ar
    39    12     5    1
    40    36    28    1
    41    35    30    1
@<TRIPOS>MOLECULE
*****
 36 41 0 0 0
SMALL
GASTEIGER

@<TRIPOS>ATOM
      1 C         143.4999  142.4394  169.5720 C.3     1  UNL1        0.0730
      2 C         142.8811  139.2155  162.9154 C.ar    1  UNL1        0.0532
      3 C         142.4719  138.0088  163.7069 C.ar    1  UNL1        0.0043
      4 C         142.4122  138.0787  165.2041 C.ar    1  UNL1       -0.0044
      5 C         142.7616  139.3555  165.9098 C.ar    1  UNL1       -0.0247
      6 C         143.1708  140.5621  165.1183 C.ar    1  UNL1       -0.0245
      7 C         143.2306  140.4922  163.6212 C.ar    1  UNL1        0.0001
      8 C         143.5567  141.9224  165.6192 C.3     1  UNL1        0.0433
      9 C         143.6287  142.4118  167.0354 C.3     1  UNL1        0.0768
     10 N         143.3326  141.6619  168.3002 N.3     1  UNL1       -0.2720
     11 C         142.8914  140.2374  168.4615 C.3     1  UNL1        0.0768
     12 C         142.6373  139.2109  167.3976 C.3     1  UNL1        0.0433
     13 C         143.7881  140.4514  157.8626 C.3     1  UNL1        0.0742
     14 C         143.3577  139.7136  159.0958 C.ar    1  UNL1        0.1442
     15 C         142.7079  138.3623  159.1329 C.ar    1  UNL1        0.1349
     16 N         142.4502  138.0111  160.5684 N.ar    1  UNL1       -0.2070
     17 C         142.9408  139.1455  161.4183 C.ar    1  UNL1        0.2293
     18 O         143.5017  140.1978  160.5081 O.2     1  UNL1       -0.4389
     19 C         142.3262  143.1532  170.1747 C.3     1  UNL1        0.0294
     20 C         141.2820  142.3798  170.9240 C.3     1  UNL1        0.0666
     21 S         139.8795  142.3084  170.3971 S.3     1  UNL1       -0.0756
     22 C         139.5204  141.2898  169.3561 C.ar    1  UNL1        0.1933
     23 N         138.9387  139.9317  169.6151 N.ar    1  UNL1       -0.1221
     24 N         138.7387  139.2531  168.2924 N.ar    1  UNL1       -0.1267
     25 C         139.1969  140.1918  167.2159 C.ar    1  UNL1        0.1846
     26 N         139.6800  141.4507  167.8733 N.ar    1  UNL1       -0.2872
     27 C         140.2267  142.6582  167.1711 C.3     1  UNL1        0.1340
     28 C         139.1757  139.9196  165.7410 C.2     1  UNL1        0.1167
     29 C         138.7910  138.6247  165.0889 C.2     1  UNL1        0.0234
     30 C         138.9130  138.7993  163.6040 C.2     1  UNL1        0.0155
     31 C         138.6646  137.8621  162.4594 C.2     1  UNL1        0.0009
     32 C         138.8763  138.3277  161.0494 C.2     1  UNL1       -0.0041
     33 C         139.3364  139.7306  160.7838 C.2     1  UNL1       -0.0198
     34 C         139.5848  140.6677  161.9284 C.3     1  UNL1        0.0717
     35 C         139.3731  140.2020  163.3385 C.2     1  UNL1        0.0635
     36 N         139.5355  140.8944  164.6592 N.2     1  UNL1       -0.2462
@<TRIPOS>BOND
     1    13    14    1
     2    14    15   ar
     3    15    16   ar
     4    16    17   ar
     5    17     2    1
     6     2     3   ar
     7     3     4   ar
     8     4     5   ar
     9     5     6   ar
    10     6     7   ar
    11     6     8    1
    12     8     9    1
    13     9    10    1
    14    10     1    1
    15     1    19    1
    16    19    20    1
    17    20    21    1
    18    21    22    1
    19    22    23   ar
    20    23    24   ar
    21    24    25   ar
    22    25    28    1
    23    28    29    2
    24    29    30    1
    25    30    31    2
    26    31    32    1
    27    32    33    2
    28    33    34    1
    29    34    35    1
    30    35    36    2
    31    25    26   ar
    32    26    27    1
    33    10    11    1
    34    11    12    1
    35    17    18   ar
    36    18    14   ar
    37     7     2   ar
    38    26    22   ar
    39    12     5    1
    40    36    28    1
    41    35    30    1
@<TRIPOS>MOLECULE
*****
 36 41 0 0 0
SMALL
GASTEIGER

@<TRIPOS>ATOM
      1 C         143.7066  142.9539  159.0317 C.3     1  UNL1        0.0730
      2 C         141.7221  140.9242  165.8895 C.ar    1  UNL1        0.0532
      3 C         142.2137  139.5714  165.4673 C.ar    1  UNL1        0.0043
      4 C         142.7654  139.3710  164.0868 C.ar    1  UNL1       -0.0044
      5 C         142.8255  140.5236  163.1286 C.ar    1  UNL1       -0.0247
      6 C         142.3339  141.8763  163.5508 C.ar    1  UNL1       -0.0245
      7 C         141.7822  142.0767  164.9312 C.ar    1  UNL1        0.0001
      8 C         142.3035  143.1496  162.7584 C.3     1  UNL1        0.0433
      9 C         142.7573  143.3845  161.3480 C.3     1  UNL1        0.0768
     10 N         143.3534  142.4042  160.3819 N.3     1  UNL1       -0.2720
     11 C         143.6431  140.9468  160.5873 C.3     1  UNL1        0.0768
     12 C         143.4081  140.1098  161.8097 C.3     1  UNL1        0.0433
     13 C         140.0359  143.2097  170.3407 C.3     1  UNL1        0.0742
     14 C         140.3954  142.1751  169.3158 C.ar    1  UNL1        0.1442
     15 C         140.2478  140.6906  169.4724 C.ar    1  UNL1        0.1349
     16 N         140.7268  140.0413  168.2078 N.ar    1  UNL1       -0.2070
     17 C         141.1705  141.1245  167.2699 C.ar    1  UNL1        0.2293
     18 O         140.9657  142.4433  167.9547 O.2     1  UNL1       -0.4389
     19 C         142.7675  143.8938  158.3354 C.3     1  UNL1        0.0294
     20 C         141.9006  143.3962  157.2170 C.3     1  UNL1        0.0666
     21 S         140.4394  143.1523  157.4522 S.3     1  UNL1       -0.0756
     22 C         139.9187  143.0090  158.8516 C.ar    1  UNL1        0.1933
     23 N         139.3053  144.0987  159.6800 N.ar    1  UNL1       -0.1221
     24 N         138.9274  143.5141  161.0087 N.ar    1  UNL1       -0.1267
     25 C         139.3074  142.0630  161.0014 C.ar    1  UNL1        0.1846
     26 N         139.9200  141.7508  159.6683 N.ar    1  UNL1       -0.2872
     27 C         140.4422  140.4150  159.2290 C.3     1  UNL1        0.1340
     28 C         139.1094  141.0942  162.1293 C.2     1  UNL1        0.1167
     29 C         139.4381  139.6308  162.1026 C.2     1  UNL1        0.0234
     30 C         139.0798  139.0508  163.4387 C.2     1  UNL1        0.0155
     31 C         139.1834  137.6593  163.9893 C.2     1  UNL1        0.0009
     32 C         138.7369  137.3727  165.3922 C.2     1  UNL1       -0.0041
     33 C         138.1867  138.4775  166.2448 C.2     1  UNL1       -0.0198
     34 C         138.0831  139.8690  165.6942 C.3     1  UNL1        0.0717
     35 C         138.5297  140.1556  164.2912 C.2     1  UNL1        0.0635
     36 N         138.5480  141.4184  163.4819 N.2     1  UNL1       -0.2462
@<TRIPOS>BOND
     1    13    14    1
     2    14    15   ar
     3    15    16   ar
     4    16    17   ar
     5    17     2    1
     6     2     3   ar
     7     3     4   ar
     8     4     5   ar
     9     5     6   ar
    10     6     7   ar
    11     6     8    1
    12     8     9    1
    13     9    10    1
    14    10     1    1
    15     1    19    1
    16    19    20    1
    17    20    21    1
    18    21    22    1
    19    22    23   ar
    20    23    24   ar
    21    24    25   ar
    22    25    28    1
    23    28    29    2
    24    29    30    1
    25    30    31    2
    26    31    32    1
    27    32    33    2
    28    33    34    1
    29    34    35    1
    30    35    36    2
    31    25    26   ar
    32    26    27    1
    33    10    11    1
    34    11    12    1
    35    17    18   ar
    36    18    14   ar
    37     7     2   ar
    38    26    22   ar
    39    12     5    1
    40    36    28    1
    41    35    30    1
@<TRIPOS>MOLECULE
*****
 36 41 0 0 0
SMALL
GASTEIGER

@<TRIPOS>ATOM
      1 C         142.8733  137.5653  159.6564 C.3     1  UNL1        0.0730
      2 C         139.7073  139.9863  165.9175 C.ar    1  UNL1        0.0532
      3 C         138.4414  139.9444  165.1139 C.ar    1  UNL1        0.0043
      4 C         138.4767  139.5013  163.6813 C.ar    1  UNL1       -0.0044
      5 C         139.7781  139.1000  163.0523 C.ar    1  UNL1       -0.0247
      6 C         141.0439  139.1419  163.8559 C.ar    1  UNL1       -0.0245
      7 C         141.0086  139.5850  165.2884 C.ar    1  UNL1        0.0001
      8 C         142.4366  138.7868  163.4263 C.3     1  UNL1        0.0433
      9 C         142.9072  138.3021  162.0870 C.3     1  UNL1        0.0768
     10 N         142.1016  138.0529  160.8467 N.3     1  UNL1       -0.2720
     11 C         140.6262  138.2267  160.6390 C.3     1  UNL1        0.0768
     12 C         139.5921  138.6927  161.6206 C.3     1  UNL1        0.0433
     13 C         140.3659  142.8461  170.3071 C.3     1  UNL1        0.0742
     14 C         139.9746  141.7440  169.3677 C.ar    1  UNL1        0.1442
     15 C         139.2601  140.4792  169.7415 C.ar    1  UNL1        0.1349
     16 N         139.0730  139.6667  168.4944 N.ar    1  UNL1       -0.2070
     17 C         139.6718  140.4295  167.3501 C.ar    1  UNL1        0.2293
     18 O         140.2290  141.7133  167.8898 O.2     1  UNL1       -0.4389
     19 C         142.4036  137.8968  158.2708 C.3     1  UNL1        0.0294
     20 C         143.1343  138.9231  157.4567 C.3     1  UNL1        0.0666
     21 S         142.4366  140.1828  157.0367 S.3     1  UNL1       -0.0756
     22 C         141.3162  140.7327  157.8688 C.ar    1  UNL1        0.1933
     23 N         139.8733  140.8078  157.4657 N.ar    1  UNL1       -0.1221
     24 N         139.1072  141.4255  158.5977 N.ar    1  UNL1       -0.1267
     25 C         140.0767  141.7322  159.7005 C.ar    1  UNL1        0.1846
     26 N         141.4419  141.3040  159.2500 N.ar    1  UNL1       -0.2872
     27 C         142.7101  141.4257  160.0418 C.3     1  UNL1        0.1340
     28 C         139.7401  142.3573  161.0218 C.2     1  UNL1        0.1167
     29 C         140.6410  142.4272  162.2192 C.2     1  UNL1        0.0234
     30 C         139.9011  143.1354  163.3152 C.2     1  UNL1        0.0155
     31 C         140.2886  143.4929  164.7195 C.2     1  UNL1        0.0009
     32 C         139.3181  144.2181  165.6038 C.2     1  UNL1       -0.0041
     33 C         137.9600  144.5859  165.0838 C.2     1  UNL1       -0.0198
     34 C         137.5725  144.2284  163.6795 C.3     1  UNL1        0.0717
     35 C         138.5431  143.5031  162.7952 C.2     1  UNL1        0.0635
     36 N         138.4436  143.0222  161.3779 N.2     1  UNL1       -0.2462
@<TRIPOS>BOND
     1    13    14    1
     2    14    15   ar
     3    15    16   ar
     4    16    17   ar
     5    17     2    1
     6     2     3   ar
     7     3     4   ar
     8     4     5   ar
     9     5     6   ar
    10     6     7   ar
    11     6     8    1
    12     8     9    1
    13     9    10    1
    14    10     1    1
    15     1    19    1
    16    19    20    1
    17    20    21    1
    18    21    22    1
    19    22    23   ar
    20    23    24   ar
    21    24    25   ar
    22    25    28    1
    23    28    29    2
    24    29    30    1
    25    30    31    2
    26    31    32    1
    27    32    33    2
    28    33    34    1
    29    34    35    1
    30    35    36    2
    31    25    26   ar
    32    26    27    1
    33    10    11    1
    34    11    12    1
    35    17    18   ar
    36    18    14   ar
    37     7     2   ar
    38    26    22   ar
    39    12     5    1
    40    36    28    1
    41    35    30    1
@<TRIPOS>MOLECULE
*****
 36 41 0 0 0
SMALL
GASTEIGER

@<TRIPOS>ATOM
      1 C         139.8980  142.3142  170.3465 C.3     1  UNL1        0.0730
      2 C         139.4629  140.1473  163.2612 C.ar    1  UNL1        0.0532
      3 C         138.9334  138.8701  163.8431 C.ar    1  UNL1        0.0043
      4 C         138.7918  138.7251  165.3294 C.ar    1  UNL1       -0.0044
      5 C         139.1797  139.8573  166.2337 C.ar    1  UNL1       -0.0247
      6 C         139.7091  141.1343  165.6519 C.ar    1  UNL1       -0.0245
      7 C         139.8508  141.2794  164.1657 C.ar    1  UNL1        0.0001
      8 C         140.1505  142.3762  166.3682 C.3     1  UNL1        0.0433
      9 C         140.1712  142.6476  167.8433 C.3     1  UNL1        0.0768
     10 N         139.7559  141.7443  168.9663 N.3     1  UNL1       -0.2720
     11 C         139.2171  140.3463  168.8918 C.3     1  UNL1        0.0768
     12 C         138.9607  139.5065  167.6756 C.3     1  UNL1        0.0433
     13 C         139.2241  139.1797  158.0759 C.3     1  UNL1        0.0742
     14 C         139.4947  139.8475  159.3916 C.ar    1  UNL1        0.1442
     15 C         140.1501  141.1829  159.5842 C.ar    1  UNL1        0.1349
     16 N         140.2179  141.4578  161.0573 N.ar    1  UNL1       -0.2070
     17 C         139.6045  140.2922  161.7750 C.ar    1  UNL1        0.2293
     18 O         139.1576  139.2970  160.7456 O.2     1  UNL1       -0.4389
     19 C         141.1960  142.1750  171.0855 C.3     1  UNL1        0.0294
     20 C         142.3655  143.0388  170.7166 C.3     1  UNL1        0.0666
     21 S         143.5234  142.4524  169.9647 S.3     1  UNL1       -0.0756
     22 C         143.2968  141.3321  168.9933 C.ar    1  UNL1        0.1933
     23 N         142.9778  139.9096  169.3468 N.ar    1  UNL1       -0.1221
     24 N         142.8332  139.1359  168.0699 N.ar    1  UNL1       -0.1267
     25 C         143.0630  140.0802  166.9272 C.ar    1  UNL1        0.1846
     26 N         143.3495  141.4375  167.4980 N.ar    1  UNL1       -0.2872
     27 C         143.6380  142.6817  166.7114 C.3     1  UNL1        0.1340
     28 C         143.0147  139.7289  165.4698 C.2     1  UNL1        0.1167
     29 C         142.3783  138.5062  164.8782 C.2     1  UNL1        0.0234
     30 C         142.5646  138.5602  163.3907 C.2     1  UNL1        0.0155
     31 C         142.1471  137.6279  162.2924 C.2     1  UNL1        0.0009
     32 C         142.4810  137.9516  160.8664 C.2     1  UNL1       -0.0041
     33 C         143.2326  139.2078  160.5387 C.2     1  UNL1       -0.0198
     34 C         143.6502  140.1401  161.6370 C.3     1  UNL1        0.0717
     35 C         143.3162  139.8162  163.0631 C.2     1  UNL1        0.0635
     36 N         143.5943  140.5385  164.3480 N.2     1  UNL1       -0.2462
@<TRIPOS>BOND
     1    13    14    1
     2    14    15   ar
     3    15    16   ar
     4    16    17   ar
     5    17     2    1
     6     2     3   ar
     7     3     4   ar
     8     4     5   ar
     9     5     6   ar
    10     6     7   ar
    11     6     8    1
    12     8     9    1
    13     9    10    1
    14    10     1    1
    15     1    19    1
    16    19    20    1
    17    20    21    1
    18    21    22    1
    19    22    23   ar
    20    23    24   ar
    21    24    25   ar
    22    25    28    1
    23    28    29    2
    24    29    30    1
    25    30    31    2
    26    31    32    1
    27    32    33    2
    28    33    34    1
    29    34    35    1
    30    35    36    2
    31    25    26   ar
    32    26    27    1
    33    10    11    1
    34    11    12    1
    35    17    18   ar
    36    18    14   ar
    37     7     2   ar
    38    26    22   ar
    39    12     5    1
    40    36    28    1
    41    35    30    1
@<TRIPOS>MOLECULE
*****
 36 41 0 0 0
SMALL
GASTEIGER

@<TRIPOS>ATOM
      1 C         139.8346  144.4995  157.5379 C.3     1  UNL1        0.0730
      2 C         139.7655  141.7349  164.4255 C.ar    1  UNL1        0.0532
      3 C         140.7370  142.8403  164.7156 C.ar    1  UNL1        0.0043
      4 C         141.1495  143.7822  163.6234 C.ar    1  UNL1       -0.0044
      5 C         140.5904  143.6186  162.2411 C.ar    1  UNL1       -0.0247
      6 C         139.6190  142.5132  161.9511 C.ar    1  UNL1       -0.0245
      7 C         139.2065  141.5713  163.0431 C.ar    1  UNL1        0.0001
      8 C         138.9470  142.1752  160.6532 C.3     1  UNL1        0.0433
      9 C         139.0807  142.8593  159.3249 C.3     1  UNL1        0.0768
     10 N         139.9192  144.0502  158.9665 N.3     1  UNL1       -0.2720
     11 C         140.8312  144.8512  159.8477 C.3     1  UNL1        0.0768
     12 C         141.1299  144.6592  161.3051 C.3     1  UNL1        0.0433
     13 C         137.4196  137.7878  167.0328 C.3     1  UNL1        0.0742
     14 C         138.2748  138.9788  166.7160 C.ar    1  UNL1        0.1442
     15 C         139.1621  139.7085  167.6805 C.ar    1  UNL1        0.1349
     16 N         139.8286  140.8299  166.9398 N.ar    1  UNL1       -0.2070
     17 C         139.3531  140.7931  165.5176 C.ar    1  UNL1        0.2293
     18 O         138.3929  139.6490  165.3793 O.2     1  UNL1       -0.4389
     19 C         140.0881  143.5227  156.4281 C.3     1  UNL1        0.0294
     20 C         141.4186  143.5030  155.7355 C.3     1  UNL1        0.0666
     21 S         142.4666  142.5143  156.1526 S.3     1  UNL1       -0.0756
     22 C         142.7909  142.3332  157.6059 C.ar    1  UNL1        0.1933
     23 N         143.7238  143.1857  158.4139 N.ar    1  UNL1       -0.1221
     24 N         143.7487  142.6472  159.8137 N.ar    1  UNL1       -0.1267
     25 C         142.8311  141.4620  159.8708 C.ar    1  UNL1        0.1846
     26 N         142.2391  141.2679  158.5062 N.ar    1  UNL1       -0.2872
     27 C         141.2663  140.1966  158.1114 C.3     1  UNL1        0.1340
     28 C         142.5542  140.6188  161.0800 C.2     1  UNL1        0.1167
     29 C         143.1328  140.8232  162.4487 C.2     1  UNL1        0.0234
     30 C         142.5862  139.7539  163.3476 C.2     1  UNL1        0.0155
     31 C         142.8046  139.4563  164.8014 C.2     1  UNL1        0.0009
     32 C         142.1065  138.2935  165.4420 C.2     1  UNL1       -0.0041
     33 C         141.1899  137.4282  164.6288 C.2     1  UNL1       -0.0198
     34 C         140.9716  137.7258  163.1750 C.3     1  UNL1        0.0717
     35 C         141.6697  138.8886  162.5343 C.2     1  UNL1        0.0635
     36 N         141.6500  139.4232  161.1329 N.2     1  UNL1       -0.2462
@<TRIPOS>BOND
     1    13    14    1
     2    14    15   ar
     3    15    16   ar
     4    16    17   ar
     5    17     2    1
     6     2     3   ar
     7     3     4   ar
     8     4     5   ar
     9     5     6   ar
    10     6     7   ar
    11     6     8    1
    12     8     9    1
    13     9    10    1
    14    10     1    1
    15     1    19    1
    16    19    20    1
    17    20    21    1
    18    21    22    1
    19    22    23   ar
    20    23    24   ar
    21    24    25   ar
    22    25    28    1
    23    28    29    2
    24    29    30    1
    25    30    31    2
    26    31    32    1
    27    32    33    2
    28    33    34    1
    29    34    35    1
    30    35    36    2
    31    25    26   ar
    32    26    27    1
    33    10    11    1
    34    11    12    1
    35    17    18   ar
    36    18    14   ar
    37     7     2   ar
    38    26    22   ar
    39    12     5    1
    40    36    28    1
    41    35    30    1
@<TRIPOS>MOLECULE
*****
 36 41 0 0 0
SMALL
GASTEIGER

@<TRIPOS>ATOM
      1 C         141.6035  138.2869  158.3256 C.3     1  UNL1        0.0730
      2 C         142.6243  139.4025  165.5919 C.ar    1  UNL1        0.0532
      3 C         144.0469  139.6669  165.1967 C.ar    1  UNL1        0.0043
      4 C         144.4535  139.5795  163.7554 C.ar    1  UNL1       -0.0044
      5 C         143.4374  139.2278  162.7095 C.ar    1  UNL1       -0.0247
      6 C         142.0149  138.9635  163.1048 C.ar    1  UNL1       -0.0245
      7 C         141.6083  139.0508  164.5459 C.ar    1  UNL1        0.0001
      8 C         140.8527  138.6004  162.2285 C.3     1  UNL1        0.0433
      9 C         140.8263  138.4121  160.7406 C.3     1  UNL1        0.0768
     10 N         141.9553  138.5403  159.7615 N.3     1  UNL1       -0.2720
     11 C         143.3898  138.8885  160.0284 C.3     1  UNL1        0.0768
     12 C         144.0494  139.1945  161.3404 C.3     1  UNL1        0.0433
     13 C         139.8594  140.4017  169.9780 C.3     1  UNL1        0.0742
     14 C         140.9469  139.9491  169.0491 C.ar    1  UNL1        0.1442
     15 C         142.2372  139.2995  169.4526 C.ar    1  UNL1        0.1349
     16 N         143.0227  139.0156  168.2066 N.ar    1  UNL1       -0.2070
     17 C         142.2178  139.4898  167.0331 C.ar    1  UNL1        0.2293
     18 O         140.9348  140.0668  167.5538 O.2     1  UNL1       -0.4389
     19 C         142.4888  138.8090  157.2329 C.3     1  UNL1        0.0294
     20 C         141.9301  139.7340  156.1925 C.3     1  UNL1        0.0666
     21 S         142.0549  141.2188  156.3643 S.3     1  UNL1       -0.0756
     22 C         142.3284  141.7964  157.7213 C.ar    1  UNL1        0.1933
     23 N         143.6514  142.3043  158.2130 N.ar    1  UNL1       -0.1221
     24 N         143.4678  142.7894  159.6204 N.ar    1  UNL1       -0.1267
     25 C         142.0312  142.5813  159.9987 C.ar    1  UNL1        0.1846
     26 N         141.3271  141.9676  158.8249 N.ar    1  UNL1       -0.2872
     27 C         139.8763  141.5912  158.7654 C.3     1  UNL1        0.1340
     28 C         141.4082  142.9263  161.3188 C.2     1  UNL1        0.1167
     29 C         141.7930  142.3552  162.6514 C.2     1  UNL1        0.0234
     30 C         140.9136  142.9789  163.6944 C.2     1  UNL1        0.0155
     31 C         140.8381  142.7995  165.1817 C.2     1  UNL1        0.0009
     32 C         139.8345  143.5765  165.9809 C.2     1  UNL1       -0.0041
     33 C         138.9062  144.5331  165.2929 C.2     1  UNL1       -0.0198
     34 C         138.9817  144.7125  163.8056 C.3     1  UNL1        0.0717
     35 C         139.9854  143.9355  163.0063 C.2     1  UNL1        0.0635
     36 N         140.2911  143.9029  161.5382 N.2     1  UNL1       -0.2462
@<TRIPOS>BOND
     1    13    14    1
     2    14    15   ar
     3    15    16   ar
     4    16    17   ar
     5    17     2    1
     6     2     3   ar
     7     3     4   ar
     8     4     5   ar
     9     5     6   ar
    10     6     7   ar
    11     6     8    1
    12     8     9    1
    13     9    10    1
    14    10     1    1
    15     1    19    1
    16    19    20    1
    17    20    21    1
    18    21    22    1
    19    22    23   ar
    20    23    24   ar
    21    24    25   ar
    22    25    28    1
    23    28    29    2
    24    29    30    1
    25    30    31    2
    26    31    32    1
    27    32    33    2
    28    33    34    1
    29    34    35    1
    30    35    36    2
    31    25    26   ar
    32    26    27    1
    33    10    11    1
    34    11    12    1
    35    17    18   ar
    36    18    14   ar
    37     7     2   ar
    38    26    22   ar
    39    12     5    1
    40    36    28    1
    41    35    30    1
