@<TRIPOS>MOLECULE
*****
 34 38 0 0 0
SMALL
GASTEIGER

@<TRIPOS>ATOM
      1 N         137.8762  142.9731  162.9571 N.3     1  UNL1       -0.2711
      2 C         138.0806  142.6869  161.4989 C.3     1  UNL1        0.0735
      3 C         138.0842  141.2703  161.0059 C.3     1  UNL1        0.0331
      4 C         137.8835  140.1398  161.9711 C.3     1  UNL1        0.0570
      5 C         137.6791  140.4260  163.4293 C.3     1  UNL1        0.0331
      6 C         137.6755  141.8426  163.9223 C.3     1  UNL1        0.0735
      7 N         137.8871  138.7231  161.4781 N.3     1  UNL1       -0.2934
      8 H         137.3056  138.7013  160.6404 H       1  UNL1        0.1236
      9 C         139.1827  138.0558  161.1233 C.3     1  UNL1        0.1152
     10 C         140.3897  138.2514  161.9921 C.ar    1  UNL1        0.0782
     11 C         141.4386  139.2513  161.6047 C.ar    1  UNL1        0.0562
     12 C         142.6456  139.4470  162.4736 C.ar    1  UNL1        0.1752
     13 C         142.8037  138.6427  163.7299 C.ar    1  UNL1        0.1914
     14 C         141.7548  137.6428  164.1173 C.ar    1  UNL1        0.1384
     15 N         140.5478  137.4472  163.2484 N.ar    1  UNL1       -0.2434
     16 O         144.0107  138.8383  164.5987 O.3     1  UNL1       -0.4668
     17 C         145.0595  139.8382  164.2113 C.3     1  UNL1        0.2527
     18 C         144.9015  140.6425  162.9551 C.3     1  UNL1        0.2526
     19 O         143.6944  140.4468  162.0862 O.3     1  UNL1       -0.4683
     20 C         137.8726  144.3898  163.4500 C.3     1  UNL1        0.0942
     21 C         138.9204  144.8490  164.4202 C.3     1  UNL1        0.1157
     22 C         140.9221  142.0089  167.2798 C.ar    1  UNL1        0.1402
     23 C         142.3567  141.6231  167.0726 C.ar    1  UNL1        0.0401
     24 C         143.1241  142.1839  165.9122 C.ar    1  UNL1        0.0413
     25 C         142.4569  143.1306  164.9590 C.ar    1  UNL1        0.1530
     26 C         141.0223  143.5164  165.1662 C.ar    1  UNL1        0.0912
     27 C         140.2549  142.9556  166.3266 C.ar    1  UNL1        0.0549
     28 N         140.3550  144.4632  164.2130 N.am    1  UNL1       -0.2515
     29 C         141.1225  145.0240  163.0526 C.2     1  UNL1        0.2740
     30 O         140.4553  145.9707  162.0994 O.2     1  UNL1       -0.2705
     31 C         142.5571  144.6381  162.8455 C.3     1  UNL1        0.2900
     32 O         143.2243  143.6915  163.7986 O.3     1  UNL1       -0.4643
     33 C         139.5481  140.0794  168.3471 C.3     1  UNL1        0.2525
     34 O         140.1547  141.4481  168.4402 O.3     1  UNL1       -0.4714
@<TRIPOS>BOND
     1    33    34    1
     2    34    22    1
     3    22    23   ar
     4    23    24   ar
     5    24    25   ar
     6    25    26   ar
     7    26    27   ar
     8    26    28    1
     9    28    21    1
    10    21    20    1
    11    20     1    1
    12     1     2    1
    13     2     3    1
    14     3     4    1
    15     4     7    1
    16     7     9    1
    17     9    10    1
    18    10    11   ar
    19    11    12   ar
    20    12    13   ar
    21    13    14   ar
    22    14    15   ar
    23    13    16    1
    24    16    17    1
    25    17    18    1
    26    18    19    1
    27     4     5    1
    28     5     6    1
    29    28    29   am
    30    29    30    2
    31    29    31    1
    32    31    32    1
    33    27    22   ar
    34     6     1    1
    35    32    25    1
    36    15    10   ar
    37    19    12    1
    38     7     8    1
@<TRIPOS>MOLECULE
*****
 34 38 0 0 0
SMALL
GASTEIGER

@<TRIPOS>ATOM
      1 N         142.9380  144.1383  162.3619 N.3     1  UNL1       -0.2711
      2 C         142.0793  143.9591  161.1451 C.3     1  UNL1        0.0735
      3 C         140.6253  144.3247  161.1928 C.3     1  UNL1        0.0331
      4 C         140.0301  144.8695  162.4572 C.3     1  UNL1        0.0570
      5 C         140.8888  145.0486  163.6740 C.3     1  UNL1        0.0331
      6 C         142.3427  144.6830  163.6264 C.3     1  UNL1        0.0735
      7 N         138.5760  145.2351  162.5049 N.3     1  UNL1       -0.2934
      8 H         138.2918  145.4377  161.5465 H       1  UNL1        0.1236
      9 C         137.5760  144.2629  163.0569 C.3     1  UNL1        0.1152
     10 C         137.7913  142.7882  162.8877 C.ar    1  UNL1        0.0782
     11 C         138.0664  141.9281  164.0855 C.ar    1  UNL1        0.0562
     12 C         138.2818  140.4534  163.9163 C.ar    1  UNL1        0.1752
     13 C         138.2221  139.8386  162.5494 C.ar    1  UNL1        0.1914
     14 C         137.9470  140.6986  161.3516 C.ar    1  UNL1        0.1384
     15 N         137.7316  142.1735  161.5208 N.ar    1  UNL1       -0.2434
     16 O         138.4374  138.3638  162.3802 O.3     1  UNL1       -0.4668
     17 C         138.7125  137.5038  163.5780 C.3     1  UNL1        0.2527
     18 C         138.7723  138.1185  164.9449 C.3     1  UNL1        0.2526
     19 O         138.5569  139.5933  165.1141 O.3     1  UNL1       -0.4683
     20 C         144.3920  143.7726  162.3142 C.3     1  UNL1        0.0942
     21 C         144.8640  142.4918  162.9360 C.3     1  UNL1        0.1157
     22 C         143.1706  141.8510  167.0557 C.ar    1  UNL1        0.1402
     23 C         142.1997  140.7345  167.3021 C.ar    1  UNL1        0.0401
     24 C         141.7933  139.8316  166.1754 C.ar    1  UNL1        0.0413
     25 C         142.3577  140.0452  164.8022 C.ar    1  UNL1        0.1530
     26 C         143.3286  141.1617  164.5557 C.ar    1  UNL1        0.0912
     27 C         143.7350  142.0646  165.6825 C.ar    1  UNL1        0.0549
     28 N         143.8931  141.3753  163.1825 N.am    1  UNL1       -0.2515
     29 C         143.4867  140.4724  162.0557 C.2     1  UNL1        0.2740
     30 O         144.0512  140.6860  160.6825 O.2     1  UNL1       -0.2705
     31 C         142.5158  139.3559  162.3022 C.3     1  UNL1        0.2900
     32 O         141.9513  139.1423  163.6754 O.3     1  UNL1       -0.4643
     33 C         143.6029  142.2331  169.5889 C.3     1  UNL1        0.2525
     34 O         143.5770  142.7539  168.1825 O.3     1  UNL1       -0.4714
@<TRIPOS>BOND
     1    33    34    1
     2    34    22    1
     3    22    23   ar
     4    23    24   ar
     5    24    25   ar
     6    25    26   ar
     7    26    27   ar
     8    26    28    1
     9    28    21    1
    10    21    20    1
    11    20     1    1
    12     1     2    1
    13     2     3    1
    14     3     4    1
    15     4     7    1
    16     7     9    1
    17     9    10    1
    18    10    11   ar
    19    11    12   ar
    20    12    13   ar
    21    13    14   ar
    22    14    15   ar
    23    13    16    1
    24    16    17    1
    25    17    18    1
    26    18    19    1
    27     4     5    1
    28     5     6    1
    29    28    29   am
    30    29    30    2
    31    29    31    1
    32    31    32    1
    33    27    22   ar
    34     6     1    1
    35    32    25    1
    36    15    10   ar
    37    19    12    1
    38     7     8    1
@<TRIPOS>MOLECULE
*****
 34 38 0 0 0
SMALL
GASTEIGER

@<TRIPOS>ATOM
      1 N         144.4912  140.1865  163.4564 N.3     1  UNL1       -0.2711
      2 C         143.8366  139.3435  164.5103 C.3     1  UNL1        0.0735
      3 C         142.7643  138.3660  164.1298 C.3     1  UNL1        0.0331
      4 C         142.3468  138.2316  162.6954 C.3     1  UNL1        0.0570
      5 C         143.0014  139.0746  161.6415 C.3     1  UNL1        0.0331
      6 C         144.0737  140.0521  162.0220 C.3     1  UNL1        0.0735
      7 N         141.2745  137.2541  162.3148 N.3     1  UNL1       -0.2934
      8 H         141.1470  136.6315  163.1126 H       1  UNL1        0.1236
      9 C         139.9118  137.7482  161.9290 C.3     1  UNL1        0.1152
     10 C         139.3317  138.9542  162.6066 C.ar    1  UNL1        0.0782
     11 C         139.2690  140.2650  161.8801 C.ar    1  UNL1        0.0562
     12 C         138.6890  141.4710  162.5576 C.ar    1  UNL1        0.1752
     13 C         138.1716  141.3662  163.9617 C.ar    1  UNL1        0.1914
     14 C         138.2343  140.0554  164.6882 C.ar    1  UNL1        0.1384
     15 N         138.8144  138.8494  164.0106 N.ar    1  UNL1       -0.2434
     16 O         137.5916  142.5722  164.6393 O.3     1  UNL1       -0.4668
     17 C         137.5289  143.8831  163.9128 C.3     1  UNL1        0.2527
     18 C         138.0462  143.9879  162.5087 C.3     1  UNL1        0.2526
     19 O         138.6262  142.7819  161.8311 O.3     1  UNL1       -0.4683
     20 C         145.5635  141.1640  163.8369 C.3     1  UNL1        0.0942
     21 C         145.1943  142.4760  164.4634 C.3     1  UNL1        0.1157
     22 C         142.1388  141.8294  167.7031 C.ar    1  UNL1        0.1402
     23 C         140.7498  142.3724  167.5431 C.ar    1  UNL1        0.0401
     24 C         140.3792  143.1310  166.3032 C.ar    1  UNL1        0.0413
     25 C         141.3977  143.3465  165.2233 C.ar    1  UNL1        0.1530
     26 C         142.7867  142.8035  165.3833 C.ar    1  UNL1        0.0912
     27 C         143.1573  142.0449  166.6232 C.ar    1  UNL1        0.0549
     28 N         143.8053  143.0190  164.3034 N.am    1  UNL1       -0.2515
     29 C         143.4347  143.7776  163.0635 C.2     1  UNL1        0.2740
     30 O         144.4532  143.9931  161.9836 O.2     1  UNL1       -0.2705
     31 C         142.0456  144.3206  162.9036 C.3     1  UNL1        0.2900
     32 O         141.0271  144.1050  163.9835 O.3     1  UNL1       -0.4643
     33 C         142.4955  139.5710  168.9368 C.3     1  UNL1        0.2525
     34 O         142.5094  141.0709  168.9430 O.3     1  UNL1       -0.4714
@<TRIPOS>BOND
     1    33    34    1
     2    34    22    1
     3    22    23   ar
     4    23    24   ar
     5    24    25   ar
     6    25    26   ar
     7    26    27   ar
     8    26    28    1
     9    28    21    1
    10    21    20    1
    11    20     1    1
    12     1     2    1
    13     2     3    1
    14     3     4    1
    15     4     7    1
    16     7     9    1
    17     9    10    1
    18    10    11   ar
    19    11    12   ar
    20    12    13   ar
    21    13    14   ar
    22    14    15   ar
    23    13    16    1
    24    16    17    1
    25    17    18    1
    26    18    19    1
    27     4     5    1
    28     5     6    1
    29    28    29   am
    30    29    30    2
    31    29    31    1
    32    31    32    1
    33    27    22   ar
    34     6     1    1
    35    32    25    1
    36    15    10   ar
    37    19    12    1
    38     7     8    1
@<TRIPOS>MOLECULE
*****
 34 38 0 0 0
SMALL
GASTEIGER

@<TRIPOS>ATOM
      1 N         142.9791  144.0521  162.2439 N.3     1  UNL1       -0.2711
      2 C         142.0852  143.6063  161.1249 C.3     1  UNL1        0.0735
      3 C         140.6313  143.9753  161.1340 C.3     1  UNL1        0.0331
      4 C         140.0714  144.7901  162.2621 C.3     1  UNL1        0.0570
      5 C         140.9654  145.2359  163.3811 C.3     1  UNL1        0.0331
      6 C         142.4192  144.8669  163.3720 C.3     1  UNL1        0.0735
      7 N         138.6175  145.1592  162.2712 N.3     1  UNL1       -0.2934
      8 H         138.2990  145.1254  161.3028 H       1  UNL1        0.1236
      9 C         137.6435  144.3504  163.0758 C.3     1  UNL1        0.1152
     10 C         137.8410  142.8712  163.2262 C.ar    1  UNL1        0.0782
     11 C         138.2256  142.2974  164.5576 C.ar    1  UNL1        0.0562
     12 C         138.4231  140.8181  164.7080 C.ar    1  UNL1        0.1752
     13 C         138.2359  139.9125  163.5269 C.ar    1  UNL1        0.1914
     14 C         137.8512  140.4863  162.1955 C.ar    1  UNL1        0.1384
     15 N         137.6538  141.9657  162.0451 N.ar    1  UNL1       -0.2434
     16 O         138.4334  138.4332  163.6773 O.3     1  UNL1       -0.4668
     17 C         138.8180  137.8594  165.0088 C.3     1  UNL1        0.2527
     18 C         139.0052  138.7649  166.1899 C.3     1  UNL1        0.2526
     19 O         138.8077  140.2443  166.0395 O.3     1  UNL1       -0.4683
     20 C         144.4330  143.6831  162.2348 C.3     1  UNL1        0.0942
     21 C         144.9126  142.5046  163.0292 C.3     1  UNL1        0.1157
     22 C         143.2968  139.0748  160.6054 C.ar    1  UNL1        0.1402
     23 C         142.3060  138.1273  161.2142 C.ar    1  UNL1        0.0401
     24 C         141.8538  138.3232  162.6309 C.ar    1  UNL1        0.0413
     25 C         142.3924  139.4664  163.4389 C.ar    1  UNL1        0.1530
     26 C         143.3832  140.4138  162.8301 C.ar    1  UNL1        0.0912
     27 C         143.8354  140.2180  161.4133 C.ar    1  UNL1        0.0549
     28 N         143.9219  141.5572  163.6380 N.am    1  UNL1       -0.2515
     29 C         143.4697  141.7530  165.0548 C.2     1  UNL1        0.2740
     30 O         144.0083  142.8962  165.8627 O.2     1  UNL1       -0.2705
     31 C         142.4789  140.8055  165.6636 C.3     1  UNL1        0.2900
     32 O         141.9403  139.6622  164.8556 O.3     1  UNL1       -0.4643
     33 C         142.7632  138.4624  158.1375 C.3     1  UNL1        0.2525
     34 O         143.7489  138.8790  159.1886 O.3     1  UNL1       -0.4714
@<TRIPOS>BOND
     1    33    34    1
     2    34    22    1
     3    22    23   ar
     4    23    24   ar
     5    24    25   ar
     6    25    26   ar
     7    26    27   ar
     8    26    28    1
     9    28    21    1
    10    21    20    1
    11    20     1    1
    12     1     2    1
    13     2     3    1
    14     3     4    1
    15     4     7    1
    16     7     9    1
    17     9    10    1
    18    10    11   ar
    19    11    12   ar
    20    12    13   ar
    21    13    14   ar
    22    14    15   ar
    23    13    16    1
    24    16    17    1
    25    17    18    1
    26    18    19    1
    27     4     5    1
    28     5     6    1
    29    28    29   am
    30    29    30    2
    31    29    31    1
    32    31    32    1
    33    27    22   ar
    34     6     1    1
    35    32    25    1
    36    15    10   ar
    37    19    12    1
    38     7     8    1
@<TRIPOS>MOLECULE
*****
 34 38 0 0 0
SMALL
GASTEIGER

@<TRIPOS>ATOM
      1 N         143.0510  144.1012  162.5958 N.3     1  UNL1       -0.2711
      2 C         142.1954  143.4599  161.5438 C.3     1  UNL1        0.0735
      3 C         140.7401  143.8095  161.4449 C.3     1  UNL1        0.0331
      4 C         140.1404  144.8005  162.3980 C.3     1  UNL1        0.0570
      5 C         140.9961  145.4418  163.4499 C.3     1  UNL1        0.0331
      6 C         142.4513  145.0922  163.5488 C.3     1  UNL1        0.0735
      7 N         138.6850  145.1502  162.2991 N.3     1  UNL1       -0.2934
      8 H         138.4298  145.0725  161.3146 H       1  UNL1        0.1236
      9 C         137.6701  144.3622  163.0731 C.3     1  UNL1        0.1152
     10 C         137.9171  142.9140  163.3761 C.ar    1  UNL1        0.0782
     11 C         137.7663  141.8853  162.2949 C.ar    1  UNL1        0.0562
     12 C         138.0133  140.4371  162.5978 C.ar    1  UNL1        0.1752
     13 C         138.4110  140.0177  163.9821 C.ar    1  UNL1        0.1914
     14 C         138.5617  141.0464  165.0632 C.ar    1  UNL1        0.1384
     15 N         138.3148  142.4946  164.7602 N.ar    1  UNL1       -0.2434
     16 O         138.6579  138.5695  164.2850 O.3     1  UNL1       -0.4668
     17 C         138.5072  137.5408  163.2039 C.3     1  UNL1        0.2527
     18 C         138.1095  137.9602  161.8197 C.3     1  UNL1        0.2526
     19 O         137.8625  139.4084  161.5167 O.3     1  UNL1       -0.4683
     20 C         144.5064  143.7515  162.6946 C.3     1  UNL1        0.0942
     21 C         144.9330  142.5196  163.4364 C.3     1  UNL1        0.1157
     22 C         142.7234  138.6004  163.3477 C.ar    1  UNL1        0.1402
     23 C         141.9537  138.1460  164.5522 C.ar    1  UNL1        0.0401
     24 C         141.9205  138.9979  165.7864 C.ar    1  UNL1        0.0413
     25 C         142.6570  140.3043  165.8160 C.ar    1  UNL1        0.1530
     26 C         143.4267  140.7587  164.6114 C.ar    1  UNL1        0.0912
     27 C         143.4599  139.9068  163.3773 C.ar    1  UNL1        0.0549
     28 N         144.1633  142.0651  164.6410 N.am    1  UNL1       -0.2515
     29 C         144.1300  142.9171  165.8751 C.2     1  UNL1        0.2740
     30 O         144.8665  144.2235  165.9047 O.2     1  UNL1       -0.2705
     31 C         143.3603  142.4626  167.0797 C.3     1  UNL1        0.2900
     32 O         142.6238  141.1562  167.0501 O.3     1  UNL1       -0.4643
     33 C         143.8809  137.8946  161.1314 C.3     1  UNL1        0.2525
     34 O         142.7567  137.7484  162.1136 O.3     1  UNL1       -0.4714
@<TRIPOS>BOND
     1    33    34    1
     2    34    22    1
     3    22    23   ar
     4    23    24   ar
     5    24    25   ar
     6    25    26   ar
     7    26    27   ar
     8    26    28    1
     9    28    21    1
    10    21    20    1
    11    20     1    1
    12     1     2    1
    13     2     3    1
    14     3     4    1
    15     4     7    1
    16     7     9    1
    17     9    10    1
    18    10    11   ar
    19    11    12   ar
    20    12    13   ar
    21    13    14   ar
    22    14    15   ar
    23    13    16    1
    24    16    17    1
    25    17    18    1
    26    18    19    1
    27     4     5    1
    28     5     6    1
    29    28    29   am
    30    29    30    2
    31    29    31    1
    32    31    32    1
    33    27    22   ar
    34     6     1    1
    35    32    25    1
    36    15    10   ar
    37    19    12    1
    38     7     8    1
@<TRIPOS>MOLECULE
*****
 34 38 0 0 0
SMALL
GASTEIGER

@<TRIPOS>ATOM
      1 N         137.9737  140.0506  162.2717 N.3     1  UNL1       -0.2711
      2 C         137.5847  140.7707  163.5287 C.3     1  UNL1        0.0735
      3 C         137.5452  142.2700  163.5526 C.3     1  UNL1        0.0331
      4 C         137.8947  143.0491  162.3194 C.3     1  UNL1        0.0570
      5 C         138.2837  142.3290  161.0624 C.3     1  UNL1        0.0331
      6 C         138.3232  140.8297  161.0385 C.3     1  UNL1        0.0735
      7 N         137.8552  144.5485  162.3432 N.3     1  UNL1       -0.2934
      8 H         137.2735  144.8151  163.1375 H       1  UNL1        0.1236
      9 C         139.1300  145.3306  162.4580 C.3     1  UNL1        0.1152
     10 C         140.4052  144.6354  162.8329 C.ar    1  UNL1        0.0782
     11 C         141.3860  144.2421  161.7683 C.ar    1  UNL1        0.0562
     12 C         142.6612  143.5470  162.1432 C.ar    1  UNL1        0.1752
     13 C         142.9556  143.2451  163.5828 C.ar    1  UNL1        0.1914
     14 C         141.9748  143.6384  164.6474 C.ar    1  UNL1        0.1384
     15 N         140.6995  144.3336  164.2724 N.ar    1  UNL1       -0.2434
     16 O         144.2308  142.5499  163.9577 O.3     1  UNL1       -0.4668
     17 C         145.2116  142.1566  162.8931 C.3     1  UNL1        0.2527
     18 C         144.9172  142.4585  161.4536 C.3     1  UNL1        0.2526
     19 O         143.6420  143.1536  161.0786 O.3     1  UNL1       -0.4683
     20 C         138.0132  138.5513  162.2479 C.3     1  UNL1        0.0942
     21 C         138.9898  137.8129  163.1146 C.3     1  UNL1        0.1157
     22 C         140.0374  139.6053  167.1070 C.ar    1  UNL1        0.1402
     23 C         141.4081  140.1681  167.3400 C.ar    1  UNL1        0.0401
     24 C         142.4297  140.1335  166.2422 C.ar    1  UNL1        0.0413
     25 C         142.0805  139.5360  164.9114 C.ar    1  UNL1        0.1530
     26 C         140.7098  138.9732  164.6784 C.ar    1  UNL1        0.0912
     27 C         139.6882  139.0079  165.7762 C.ar    1  UNL1        0.0549
     28 N         140.3605  138.3757  163.3475 N.am    1  UNL1       -0.2515
     29 C         141.3821  138.3411  162.2497 C.2     1  UNL1        0.2740
     30 O         141.0329  137.7436  160.9189 O.2     1  UNL1       -0.2705
     31 C         142.7529  138.9039  162.4827 C.3     1  UNL1        0.2900
     32 O         143.1020  139.5014  163.8135 O.3     1  UNL1       -0.4643
     33 C         139.3030  140.3876  169.4732 C.3     1  UNL1        0.2525
     34 O         139.0159  139.6400  168.2049 O.3     1  UNL1       -0.4714
@<TRIPOS>BOND
     1    33    34    1
     2    34    22    1
     3    22    23   ar
     4    23    24   ar
     5    24    25   ar
     6    25    26   ar
     7    26    27   ar
     8    26    28    1
     9    28    21    1
    10    21    20    1
    11    20     1    1
    12     1     2    1
    13     2     3    1
    14     3     4    1
    15     4     7    1
    16     7     9    1
    17     9    10    1
    18    10    11   ar
    19    11    12   ar
    20    12    13   ar
    21    13    14   ar
    22    14    15   ar
    23    13    16    1
    24    16    17    1
    25    17    18    1
    26    18    19    1
    27     4     5    1
    28     5     6    1
    29    28    29   am
    30    29    30    2
    31    29    31    1
    32    31    32    1
    33    27    22   ar
    34     6     1    1
    35    32    25    1
    36    15    10   ar
    37    19    12    1
    38     7     8    1
@<TRIPOS>MOLECULE
*****
 34 38 0 0 0
SMALL
GASTEIGER

@<TRIPOS>ATOM
      1 N         143.3736  140.4643  160.6702 N.3     1  UNL1       -0.2711
      2 C         141.8781  140.4156  160.7749 C.3     1  UNL1        0.0735
      3 C         141.2104  139.2484  161.4397 C.3     1  UNL1        0.0331
      4 C         142.0383  138.1301  161.9998 C.3     1  UNL1        0.0570
      5 C         143.5339  138.1788  161.8951 C.3     1  UNL1        0.0331
      6 C         144.2015  139.3459  161.2303 C.3     1  UNL1        0.0735
      7 N         141.3707  136.9629  162.6647 N.3     1  UNL1       -0.2934
      8 H         142.0819  136.2401  162.7744 H       1  UNL1        0.1236
      9 C         140.7184  137.1353  164.0044 C.3     1  UNL1        0.1152
     10 C         141.2535  138.1465  164.9746 C.ar    1  UNL1        0.0782
     11 C         140.4156  139.3278  165.3650 C.ar    1  UNL1        0.0562
     12 C         140.9507  140.3389  166.3352 C.ar    1  UNL1        0.1752
     13 C         142.3237  140.1689  166.9148 C.ar    1  UNL1        0.1914
     14 C         143.1616  138.9875  166.5244 C.ar    1  UNL1        0.1384
     15 N         142.6264  137.9763  165.5542 N.ar    1  UNL1       -0.2434
     16 O         142.8588  141.1800  167.8850 O.3     1  UNL1       -0.4668
     17 C         142.0209  142.3613  168.2754 C.3     1  UNL1        0.2527
     18 C         140.6479  142.5315  167.6958 C.3     1  UNL1        0.2526
     19 O         140.1128  141.5203  166.7256 O.3     1  UNL1       -0.4683
     20 C         144.0412  141.6315  160.0053 C.3     1  UNL1        0.0942
     21 C         144.4735  142.8132  160.8218 C.3     1  UNL1        0.1157
     22 C         140.6110  144.9645  161.6602 C.ar    1  UNL1        0.1402
     23 C         140.1288  145.1172  163.0723 C.ar    1  UNL1        0.0401
     24 C         140.9341  144.5528  164.2050 C.ar    1  UNL1        0.0413
     25 C         142.2215  143.8357  163.9255 C.ar    1  UNL1        0.1530
     26 C         142.7037  143.6830  162.5134 C.ar    1  UNL1        0.0912
     27 C         141.8985  144.2474  161.3807 C.ar    1  UNL1        0.0549
     28 N         143.9913  142.9659  162.2339 N.am    1  UNL1       -0.2515
     29 C         144.7966  142.4015  163.3666 C.2     1  UNL1        0.2740
     30 O         146.0841  141.6844  163.0872 O.2     1  UNL1       -0.2705
     31 C         144.3143  142.5542  164.7788 C.3     1  UNL1        0.2900
     32 O         143.0268  143.2713  165.0582 O.3     1  UNL1       -0.4643
     33 C         140.2926  145.3844  159.1161 C.3     1  UNL1        0.2525
     34 O         139.8057  145.5289  160.5275 O.3     1  UNL1       -0.4714
@<TRIPOS>BOND
     1    33    34    1
     2    34    22    1
     3    22    23   ar
     4    23    24   ar
     5    24    25   ar
     6    25    26   ar
     7    26    27   ar
     8    26    28    1
     9    28    21    1
    10    21    20    1
    11    20     1    1
    12     1     2    1
    13     2     3    1
    14     3     4    1
    15     4     7    1
    16     7     9    1
    17     9    10    1
    18    10    11   ar
    19    11    12   ar
    20    12    13   ar
    21    13    14   ar
    22    14    15   ar
    23    13    16    1
    24    16    17    1
    25    17    18    1
    26    18    19    1
    27     4     5    1
    28     5     6    1
    29    28    29   am
    30    29    30    2
    31    29    31    1
    32    31    32    1
    33    27    22   ar
    34     6     1    1
    35    32    25    1
    36    15    10   ar
    37    19    12    1
    38     7     8    1
@<TRIPOS>MOLECULE
*****
 34 38 0 0 0
SMALL
GASTEIGER

@<TRIPOS>ATOM
      1 N         141.7801  138.1651  164.2595 N.3     1  UNL1       -0.2711
      2 C         141.9993  138.5115  162.8166 C.3     1  UNL1        0.0735
      3 C         143.2405  139.2442  162.4014 C.3     1  UNL1        0.0331
      4 C         144.2625  139.6306  163.4291 C.3     1  UNL1        0.0570
      5 C         144.0433  139.2842  164.8720 C.3     1  UNL1        0.0331
      6 C         142.8021  138.5515  165.2872 C.3     1  UNL1        0.0735
      7 N         145.5038  140.3633  163.0139 N.3     1  UNL1       -0.2934
      8 H         145.6096  140.2180  162.0098 H       1  UNL1        0.1236
      9 C         145.6182  141.8399  163.2521 C.3     1  UNL1        0.1152
     10 C         144.4029  142.7128  163.1472 C.ar    1  UNL1        0.0782
     11 C         143.8993  143.1386  161.8000 C.ar    1  UNL1        0.0562
     12 C         142.6841  144.0116  161.6951 C.ar    1  UNL1        0.1752
     13 C         141.9724  144.4588  162.9375 C.ar    1  UNL1        0.1914
     14 C         142.4760  144.0330  164.2848 C.ar    1  UNL1        0.1384
     15 N         143.6913  143.1600  164.3896 N.ar    1  UNL1       -0.2434
     16 O         140.7571  145.3318  162.8326 O.3     1  UNL1       -0.4668
     17 C         140.2535  145.7576  161.4854 C.3     1  UNL1        0.2527
     18 C         140.9651  145.3104  160.2430 C.3     1  UNL1        0.2526
     19 O         142.1805  144.4374  160.3478 O.3     1  UNL1       -0.4683
     20 C         140.5388  137.4323  164.6748 C.3     1  UNL1        0.0942
     21 C         139.3261  138.1992  165.1121 C.3     1  UNL1        0.1157
     22 C         140.6677  140.8402  168.4996 C.ar    1  UNL1        0.1402
     23 C         140.6287  142.3320  168.3482 C.ar    1  UNL1        0.0401
     24 C         140.1426  142.9435  167.0677 C.ar    1  UNL1        0.0413
     25 C         139.6954  142.0632  165.9385 C.ar    1  UNL1        0.1530
     26 C         139.7344  140.5714  166.0899 C.ar    1  UNL1        0.0912
     27 C         140.2205  139.9599  167.3704 C.ar    1  UNL1        0.0549
     28 N         139.2872  139.6910  164.9607 N.am    1  UNL1       -0.2515
     29 C         138.8010  140.3025  163.6802 C.2     1  UNL1        0.2740
     30 O         138.3539  139.4222  162.5510 O.2     1  UNL1       -0.2705
     31 C         138.7621  141.7944  163.5288 C.3     1  UNL1        0.2900
     32 O         139.2093  142.6747  164.6580 O.3     1  UNL1       -0.4643
     33 C         142.3691  139.3495  169.7775 C.3     1  UNL1        0.2525
     34 O         141.1538  140.2287  169.7801 O.3     1  UNL1       -0.4714
@<TRIPOS>BOND
     1    33    34    1
     2    34    22    1
     3    22    23   ar
     4    23    24   ar
     5    24    25   ar
     6    25    26   ar
     7    26    27   ar
     8    26    28    1
     9    28    21    1
    10    21    20    1
    11    20     1    1
    12     1     2    1
    13     2     3    1
    14     3     4    1
    15     4     7    1
    16     7     9    1
    17     9    10    1
    18    10    11   ar
    19    11    12   ar
    20    12    13   ar
    21    13    14   ar
    22    14    15   ar
    23    13    16    1
    24    16    17    1
    25    17    18    1
    26    18    19    1
    27     4     5    1
    28     5     6    1
    29    28    29   am
    30    29    30    2
    31    29    31    1
    32    31    32    1
    33    27    22   ar
    34     6     1    1
    35    32    25    1
    36    15    10   ar
    37    19    12    1
    38     7     8    1
@<TRIPOS>MOLECULE
*****
 34 38 0 0 0
SMALL
GASTEIGER

@<TRIPOS>ATOM
      1 N         140.1666  143.9529  164.0478 N.3     1  UNL1       -0.2711
      2 C         140.6557  142.9735  165.0733 C.3     1  UNL1        0.0735
      3 C         142.1269  142.8215  165.3235 C.3     1  UNL1        0.0331
      4 C         143.1088  143.6489  164.5482 C.3     1  UNL1        0.0570
      5 C         142.6197  144.6283  163.5228 C.3     1  UNL1        0.0331
      6 C         141.1486  144.7803  163.2726 C.3     1  UNL1        0.0735
      7 N         144.5801  143.4970  164.7984 N.3     1  UNL1       -0.2934
      8 H         144.7025  143.4402  165.8095 H       1  UNL1        0.1236
      9 C         145.3257  142.3380  164.2062 C.3     1  UNL1        0.1152
     10 C         144.8218  141.6825  162.9547 C.ar    1  UNL1        0.0782
     11 C         144.4283  140.2352  162.9722 C.ar    1  UNL1        0.0562
     12 C         143.9243  139.5798  161.7207 C.ar    1  UNL1        0.1752
     13 C         143.8139  140.3717  160.4515 C.ar    1  UNL1        0.1914
     14 C         144.2074  141.8191  160.4340 C.ar    1  UNL1        0.1384
     15 N         144.7113  142.4745  161.6856 N.ar    1  UNL1       -0.2434
     16 O         143.3099  139.7163  159.1999 O.3     1  UNL1       -0.4668
     17 C         142.9164  138.2690  159.2175 C.3     1  UNL1        0.2527
     18 C         143.0269  137.4770  160.4865 C.3     1  UNL1        0.2526
     19 O         143.5309  138.1324  161.7382 O.3     1  UNL1       -0.4683
     20 C         138.6954  144.1048  163.7976 C.3     1  UNL1        0.0942
     21 C         137.7795  142.9299  163.9730 C.3     1  UNL1        0.1157
     22 C         138.5358  139.0360  166.0979 C.ar    1  UNL1        0.1402
     23 C         138.7645  137.7821  165.3071 C.ar    1  UNL1        0.0401
     24 C         138.7412  137.8262  163.8079 C.ar    1  UNL1        0.0413
     25 C         138.4891  139.1242  163.0996 C.ar    1  UNL1        0.1530
     26 C         138.2604  140.3780  163.8905 C.ar    1  UNL1        0.0912
     27 C         138.2837  140.3339  165.3896 C.ar    1  UNL1        0.0549
     28 N         138.0083  141.6761  163.1822 N.am    1  UNL1       -0.2515
     29 C         137.9849  141.7202  161.6830 C.2     1  UNL1        0.2740
     30 O         137.7328  143.0181  160.9747 O.2     1  UNL1       -0.2705
     31 C         138.2136  140.4662  160.8921 C.3     1  UNL1        0.2900
     32 O         138.4657  139.1683  161.6004 O.3     1  UNL1       -0.4643
     33 C         139.4214  139.9516  168.3623 C.3     1  UNL1        0.2525
     34 O         138.5592  138.9919  167.5971 O.3     1  UNL1       -0.4714
@<TRIPOS>BOND
     1    33    34    1
     2    34    22    1
     3    22    23   ar
     4    23    24   ar
     5    24    25   ar
     6    25    26   ar
     7    26    27   ar
     8    26    28    1
     9    28    21    1
    10    21    20    1
    11    20     1    1
    12     1     2    1
    13     2     3    1
    14     3     4    1
    15     4     7    1
    16     7     9    1
    17     9    10    1
    18    10    11   ar
    19    11    12   ar
    20    12    13   ar
    21    13    14   ar
    22    14    15   ar
    23    13    16    1
    24    16    17    1
    25    17    18    1
    26    18    19    1
    27     4     5    1
    28     5     6    1
    29    28    29   am
    30    29    30    2
    31    29    31    1
    32    31    32    1
    33    27    22   ar
    34     6     1    1
    35    32    25    1
    36    15    10   ar
    37    19    12    1
    38     7     8    1
