@<TRIPOS>MOLECULE
*****
 43 47 0 0 0
SMALL
GASTEIGER

@<TRIPOS>ATOM
      1 C         138.7082  141.3725  162.5741 C.3     1  UNL1        0.1139
      2 C         140.8961  140.9011  166.4780 C.ar    1  UNL1       -0.0000
      3 C         140.7590  139.7313  165.5490 C.ar    1  UNL1       -0.0003
      4 C         140.0297  139.8885  164.2477 C.ar    1  UNL1       -0.0026
      5 C         139.4375  141.2154  163.8754 C.ar    1  UNL1       -0.0029
      6 C         139.5745  142.3851  164.8043 C.ar    1  UNL1       -0.0026
      7 C         140.3038  142.2279  166.1056 C.ar    1  UNL1       -0.0003
      8 C         143.0535  141.7630  169.6955 C.ar    1  UNL1        0.0534
      9 C         143.0841  140.4295  170.3819 C.ar    1  UNL1        0.0045
     10 C         142.3853  139.2533  169.7669 C.ar    1  UNL1        0.0001
     11 C         141.6560  139.4105  168.4655 C.ar    1  UNL1        0.0000
     12 C         141.6254  140.7439  167.7793 C.ar    1  UNL1        0.0001
     13 C         142.3241  141.9202  168.3943 C.ar    1  UNL1        0.0045
     14 C         145.9484  144.1976  170.8963 C.3     1  UNL1        0.1109
     15 N         145.2497  143.0214  170.2813 N.am    1  UNL1       -0.2992
     16 C         143.7522  142.9392  170.3105 C.2     1  UNL1        0.2459
     17 O         142.9535  144.0333  170.9547 O.2     1  UNL1       -0.2701
     18 H         145.7739  142.3033  169.8585 H       1  UNL1        0.1498
     19 N         138.6342  140.2239  161.6123 N.am    1  UNL1       -0.2727
     20 C         137.3867  139.3953  161.5281 C.3     1  UNL1        0.1152
     21 C         139.8078  139.9039  160.7346 C.2     1  UNL1        0.2491
     22 O         139.7339  138.7552  159.7727 O.2     1  UNL1       -0.2727
     23 C         141.0553  140.7325  160.8187 C.3     1  UNL1        0.1943
     24 N         142.2100  140.2669  161.6555 N.ar    1  UNL1       -0.2839
     25 C         142.7321  138.8691  161.5018 C.ar    1  UNL1        0.2806
     26 O         142.0996  137.9369  160.5113 O.2     1  UNL1       -0.2652
     27 C         143.8867  138.4036  162.3385 C.ar    1  UNL1        0.1595
     28 N         144.5192  139.3358  163.3289 N.ar    1  UNL1       -0.2374
     29 C         143.9970  140.7336  163.4826 C.ar    1  UNL1        0.0970
     30 C         144.6295  141.6658  164.4730 C.ar    1  UNL1        0.0160
     31 C         144.1074  143.0635  164.6267 C.ar    1  UNL1       -0.0242
     32 C         144.7399  143.9958  165.6171 C.3     1  UNL1        0.0307
     33 C         142.9528  143.5291  163.7900 C.ar    1  UNL1       -0.0243
     34 C         142.4307  144.9269  163.9437 C.3     1  UNL1        0.0307
     35 C         142.3203  142.5969  162.7996 C.ar    1  UNL1        0.0142
     36 C         142.8425  141.1991  162.6459 C.ar    1  UNL1        0.0803
     37 C         138.0527  142.6784  162.2346 C.3     1  UNL1        0.0968
     38 N         138.8535  143.7770  161.6007 N.3     1  UNL1       -0.2667
     39 C         139.4431  143.5834  160.2350 C.3     1  UNL1        0.1047
     40 C         140.2439  144.6820  159.6012 C.3     1  UNL1        0.1595
     41 O         140.4551  145.9743  160.3330 O.3     1  UNL1       -0.3508
     42 C         139.8656  146.1679  161.6986 C.3     1  UNL1        0.1595
     43 C         139.0648  145.0692  162.3325 C.3     1  UNL1        0.1047
@<TRIPOS>BOND
     1    14    15    1
     2    15    16   am
     3    16    17    2
     4    16     8    1
     5     8     9   ar
     6     9    10   ar
     7    10    11   ar
     8    11    12   ar
     9    12     2    1
    10     2     3   ar
    11     3     4   ar
    12     4     5   ar
    13     5     1    1
    14     1    37    1
    15    37    38    1
    16    38    39    1
    17    39    40    1
    18    40    41    1
    19    41    42    1
    20    42    43    1
    21     1    19    1
    22    19    20    1
    23    19    21   am
    24    21    22    2
    25    21    23    1
    26    23    24    1
    27    24    25   ar
    28    25    26    2
    29    25    27   ar
    30    27    28   ar
    31    28    29   ar
    32    29    30   ar
    33    30    31   ar
    34    31    32    1
    35    31    33   ar
    36    33    34    1
    37    33    35   ar
    38    35    36   ar
    39     5     6   ar
    40     6     7   ar
    41    12    13   ar
    42    13     8   ar
    43     7     2   ar
    44    43    38    1
    45    36    24   ar
    46    36    29   ar
    47    15    18    1
@<TRIPOS>MOLECULE
*****
 43 47 0 0 0
SMALL
GASTEIGER

@<TRIPOS>ATOM
      1 C         143.8102  142.0215  162.9708 C.3     1  UNL1        0.1139
      2 C         141.9590  141.1594  166.9808 C.ar    1  UNL1       -0.0000
      3 C         141.5864  142.4065  166.2351 C.ar    1  UNL1       -0.0003
      4 C         142.2034  142.6938  164.8985 C.ar    1  UNL1       -0.0026
      5 C         143.1932  141.7341  164.3074 C.ar    1  UNL1       -0.0029
      6 C         143.5659  140.4871  165.0530 C.ar    1  UNL1       -0.0026
      7 C         142.9488  140.1997  166.3897 C.ar    1  UNL1       -0.0003
      8 C         139.3602  139.9672  169.7329 C.ar    1  UNL1        0.0534
      9 C         140.1079  140.2973  170.9907 C.ar    1  UNL1        0.0045
     10 C         141.4726  140.9148  170.9119 C.ar    1  UNL1        0.0001
     11 C         142.0897  141.2022  169.5751 C.ar    1  UNL1        0.0000
     12 C         141.3420  140.8720  168.3174 C.ar    1  UNL1        0.0001
     13 C         139.9772  140.2546  168.3963 C.ar    1  UNL1        0.0045
     14 C         135.8905  138.7129  171.1953 C.3     1  UNL1        0.1109
     15 N         137.2553  139.3304  171.1164 N.am    1  UNL1       -0.2992
     16 C         137.9955  139.3497  169.8118 C.2     1  UNL1        0.2459
     17 O         137.3709  138.7516  168.5862 O.2     1  UNL1       -0.2701
     18 H         137.6652  139.7229  171.9208 H       1  UNL1        0.1498
     19 N         143.5102  143.3123  162.2681 N.am    1  UNL1       -0.2727
     20 C         144.4357  144.4826  162.4219 C.3     1  UNL1        0.1152
     21 C         142.2846  143.4328  161.4117 C.2     1  UNL1        0.2491
     22 O         141.9846  144.7236  160.7090 O.2     1  UNL1       -0.2727
     23 C         141.3591  142.2624  161.2579 C.3     1  UNL1        0.1943
     24 N         140.0578  142.2323  162.0034 N.ar    1  UNL1       -0.2839
     25 C         139.0805  143.3601  161.8523 C.ar    1  UNL1        0.2806
     26 O         139.4045  144.5181  160.9556 O.2     1  UNL1       -0.2652
     27 C         137.7793  143.3299  162.5978 C.ar    1  UNL1        0.1595
     28 N         137.4553  142.1719  163.4944 N.ar    1  UNL1       -0.2374
     29 C         138.4326  141.0441  163.6456 C.ar    1  UNL1        0.0970
     30 C         138.1086  139.8860  164.5422 C.ar    1  UNL1        0.0160
     31 C         139.0858  138.7582  164.6934 C.ar    1  UNL1       -0.0242
     32 C         138.7618  137.6001  165.5901 C.3     1  UNL1        0.0307
     33 C         140.3872  138.7883  163.9479 C.ar    1  UNL1       -0.0243
     34 C         141.3644  137.6605  164.0990 C.3     1  UNL1        0.0307
     35 C         140.7111  139.9464  163.0512 C.ar    1  UNL1        0.0142
     36 C         139.7338  141.0742  162.9001 C.ar    1  UNL1        0.0803
     37 C         144.7274  141.0180  162.3368 C.3     1  UNL1        0.0968
     38 N         144.1914  140.0421  161.3316 N.3     1  UNL1       -0.2667
     39 C         143.9429  140.4811  159.9188 C.3     1  UNL1        0.1047
     40 C         143.4069  139.5052  158.9136 C.3     1  UNL1        0.1595
     41 O         143.1194  138.0905  159.3211 O.3     1  UNL1       -0.3508
     42 C         143.3679  137.6517  160.7337 C.3     1  UNL1        0.1595
     43 C         143.9039  138.6275  161.7390 C.3     1  UNL1        0.1047
@<TRIPOS>BOND
     1    14    15    1
     2    15    16   am
     3    16    17    2
     4    16     8    1
     5     8     9   ar
     6     9    10   ar
     7    10    11   ar
     8    11    12   ar
     9    12     2    1
    10     2     3   ar
    11     3     4   ar
    12     4     5   ar
    13     5     1    1
    14     1    37    1
    15    37    38    1
    16    38    39    1
    17    39    40    1
    18    40    41    1
    19    41    42    1
    20    42    43    1
    21     1    19    1
    22    19    20    1
    23    19    21   am
    24    21    22    2
    25    21    23    1
    26    23    24    1
    27    24    25   ar
    28    25    26    2
    29    25    27   ar
    30    27    28   ar
    31    28    29   ar
    32    29    30   ar
    33    30    31   ar
    34    31    32    1
    35    31    33   ar
    36    33    34    1
    37    33    35   ar
    38    35    36   ar
    39     5     6   ar
    40     6     7   ar
    41    12    13   ar
    42    13     8   ar
    43     7     2   ar
    44    43    38    1
    45    36    24   ar
    46    36    29   ar
    47    15    18    1
@<TRIPOS>MOLECULE
*****
 43 47 0 0 0
SMALL
GASTEIGER

@<TRIPOS>ATOM
      1 C         141.1057  144.2399  162.9779 C.3     1  UNL1        0.1139
      2 C         141.4302  142.5691  167.1436 C.ar    1  UNL1       -0.0000
      3 C         142.6530  142.6773  166.2815 C.ar    1  UNL1       -0.0003
      4 C         142.5448  143.2342  164.8929 C.ar    1  UNL1       -0.0026
      5 C         141.2139  143.6829  164.3664 C.ar    1  UNL1       -0.0029
      6 C         139.9911  143.5747  165.2284 C.ar    1  UNL1       -0.0026
      7 C         140.0992  143.0178  166.6170 C.ar    1  UNL1       -0.0003
      8 C         142.4863  140.2392  170.1777 C.ar    1  UNL1        0.0534
      9 C         141.7547  140.8983  171.3093 C.ar    1  UNL1        0.0045
     10 C         140.9150  142.1143  171.0522 C.ar    1  UNL1        0.0001
     11 C         140.8068  142.6713  169.6636 C.ar    1  UNL1        0.0000
     12 C         141.5384  142.0121  168.5321 C.ar    1  UNL1        0.0001
     13 C         142.3781  140.7961  168.7891 C.ar    1  UNL1        0.0045
     14 C         145.0383  137.7421  171.9102 C.3     1  UNL1        0.1109
     15 N         144.1986  138.9581  171.6532 N.am    1  UNL1       -0.2992
     16 C         143.3261  139.0232  170.4347 C.2     1  UNL1        0.2459
     17 O         143.2934  137.8722  169.4734 O.2     1  UNL1       -0.2701
     18 H         144.2201  139.7135  172.2842 H       1  UNL1        0.1498
     19 N         139.7683  144.3176  162.3030 N.am    1  UNL1       -0.2727
     20 C         139.0795  145.6416  162.1535 C.3     1  UNL1        0.1152
     21 C         139.1198  143.0711  161.7777 C.2     1  UNL1        0.2491
     22 O         137.7824  143.1488  161.1029 O.2     1  UNL1       -0.2727
     23 C         139.8086  141.7471  161.9272 C.3     1  UNL1        0.1943
     24 N         139.5662  140.9091  163.1475 N.ar    1  UNL1       -0.2839
     25 C         138.1695  140.7151  163.6589 C.ar    1  UNL1        0.2806
     26 O         137.0151  141.3591  162.9499 O.2     1  UNL1       -0.2652
     27 C         137.9273  139.8772  164.8791 C.ar    1  UNL1        0.1595
     28 N         139.0817  139.2333  165.5881 N.ar    1  UNL1       -0.2374
     29 C         140.4784  139.4273  165.0768 C.ar    1  UNL1        0.0970
     30 C         141.6328  138.7833  165.7857 C.ar    1  UNL1        0.0160
     31 C         143.0296  138.9773  165.2744 C.ar    1  UNL1       -0.0242
     32 C         144.1840  138.3334  165.9834 C.3     1  UNL1        0.0307
     33 C         143.2719  139.8153  164.0541 C.ar    1  UNL1       -0.0243
     34 C         144.6686  140.0093  163.5427 C.3     1  UNL1        0.0307
     35 C         142.1175  140.4592  163.3451 C.ar    1  UNL1        0.0142
     36 C         140.7207  140.2652  163.8565 C.ar    1  UNL1        0.0803
     37 C         142.3349  144.7191  162.2641 C.3     1  UNL1        0.0968
     38 N         142.9489  143.8807  161.1824 N.3     1  UNL1       -0.2667
     39 C         144.1935  143.0910  161.4609 C.3     1  UNL1        0.1047
     40 C         144.8075  142.2526  160.3793 C.3     1  UNL1        0.1595
     41 O         144.1769  142.2038  159.0191 O.3     1  UNL1       -0.3508
     42 C         142.9324  142.9934  158.7406 C.3     1  UNL1        0.1595
     43 C         142.3184  143.8318  159.8223 C.3     1  UNL1        0.1047
@<TRIPOS>BOND
     1    14    15    1
     2    15    16   am
     3    16    17    2
     4    16     8    1
     5     8     9   ar
     6     9    10   ar
     7    10    11   ar
     8    11    12   ar
     9    12     2    1
    10     2     3   ar
    11     3     4   ar
    12     4     5   ar
    13     5     1    1
    14     1    37    1
    15    37    38    1
    16    38    39    1
    17    39    40    1
    18    40    41    1
    19    41    42    1
    20    42    43    1
    21     1    19    1
    22    19    20    1
    23    19    21   am
    24    21    22    2
    25    21    23    1
    26    23    24    1
    27    24    25   ar
    28    25    26    2
    29    25    27   ar
    30    27    28   ar
    31    28    29   ar
    32    29    30   ar
    33    30    31   ar
    34    31    32    1
    35    31    33   ar
    36    33    34    1
    37    33    35   ar
    38    35    36   ar
    39     5     6   ar
    40     6     7   ar
    41    12    13   ar
    42    13     8   ar
    43     7     2   ar
    44    43    38    1
    45    36    24   ar
    46    36    29   ar
    47    15    18    1
@<TRIPOS>MOLECULE
*****
 43 47 0 0 0
SMALL
GASTEIGER

@<TRIPOS>ATOM
      1 C         141.5464  142.8867  161.2031 C.3     1  UNL1        0.1139
      2 C         142.3121  141.7918  165.5001 C.ar    1  UNL1       -0.0000
      3 C         142.1905  140.7157  164.4621 C.ar    1  UNL1       -0.0003
      4 C         141.9352  141.0807  163.0298 C.ar    1  UNL1       -0.0026
      5 C         141.8016  142.5217  162.6354 C.ar    1  UNL1       -0.0029
      6 C         141.9232  143.5978  163.6733 C.ar    1  UNL1       -0.0026
      7 C         142.1784  143.2328  165.1057 C.ar    1  UNL1       -0.0003
      8 C         143.4232  142.0692  169.2999 C.ar    1  UNL1        0.0534
      9 C         143.0777  140.6967  169.7971 C.ar    1  UNL1        0.0045
     10 C         142.4770  139.6894  168.8620 C.ar    1  UNL1        0.0001
     11 C         142.2218  140.0544  167.4296 C.ar    1  UNL1        0.0000
     12 C         142.5673  141.4268  166.9324 C.ar    1  UNL1        0.0001
     13 C         143.1680  142.4341  167.8675 C.ar    1  UNL1        0.0045
     14 C         146.1139  144.2491  171.2384 C.3     1  UNL1        0.1109
     15 N         145.5132  143.2418  170.3033 N.am    1  UNL1       -0.2992
     16 C         144.0239  143.0765  170.2350 C.2     1  UNL1        0.2459
     17 O         143.1353  143.9186  171.1017 O.2     1  UNL1       -0.2701
     18 H         146.0964  142.6891  169.7344 H       1  UNL1        0.1498
     19 N         140.9551  141.8761  160.2655 N.am    1  UNL1       -0.2727
     20 C         141.8383  140.8609  159.6029 C.3     1  UNL1        0.1152
     21 C         139.4805  141.8809  159.9905 C.2     1  UNL1        0.2491
     22 O         138.8892  140.8703  159.0529 O.2     1  UNL1       -0.2727
     23 C         138.5972  142.8961  160.6531 C.3     1  UNL1        0.1943
     24 N         138.5772  143.0108  162.1486 N.ar    1  UNL1       -0.2839
     25 C         138.5703  144.3633  162.7971 C.ar    1  UNL1        0.2806
     26 O         138.5835  145.6012  161.9501 O.2     1  UNL1       -0.2652
     27 C         138.5503  144.4779  164.2925 C.ar    1  UNL1        0.1595
     28 N         138.5372  143.2400  165.1395 N.ar    1  UNL1       -0.2374
     29 C         138.5441  141.8875  164.4910 C.ar    1  UNL1        0.0970
     30 C         138.5309  140.6496  165.3380 C.ar    1  UNL1        0.0160
     31 C         138.5378  139.2970  164.6896 C.ar    1  UNL1       -0.0242
     32 C         138.5247  138.0591  165.5365 C.3     1  UNL1        0.0307
     33 C         138.5578  139.1824  163.1940 C.ar    1  UNL1       -0.0243
     34 C         138.5647  137.8298  162.5456 C.3     1  UNL1        0.0307
     35 C         138.5709  140.4203  162.3470 C.ar    1  UNL1        0.0142
     36 C         138.5641  141.7729  162.9956 C.ar    1  UNL1        0.0803
     37 C         141.8824  144.2624  160.7083 C.3     1  UNL1        0.0968
     38 N         141.6627  144.6155  159.2671 N.3     1  UNL1       -0.2667
     39 C         142.6373  144.1534  158.2246 C.3     1  UNL1        0.1047
     40 C         142.4176  144.5065  156.7834 C.3     1  UNL1        0.1595
     41 O         141.2231  145.3217  156.3847 O.3     1  UNL1       -0.3508
     42 C         140.2486  145.7838  157.4271 C.3     1  UNL1        0.1595
     43 C         140.4684  145.4307  158.8683 C.3     1  UNL1        0.1047
@<TRIPOS>BOND
     1    14    15    1
     2    15    16   am
     3    16    17    2
     4    16     8    1
     5     8     9   ar
     6     9    10   ar
     7    10    11   ar
     8    11    12   ar
     9    12     2    1
    10     2     3   ar
    11     3     4   ar
    12     4     5   ar
    13     5     1    1
    14     1    37    1
    15    37    38    1
    16    38    39    1
    17    39    40    1
    18    40    41    1
    19    41    42    1
    20    42    43    1
    21     1    19    1
    22    19    20    1
    23    19    21   am
    24    21    22    2
    25    21    23    1
    26    23    24    1
    27    24    25   ar
    28    25    26    2
    29    25    27   ar
    30    27    28   ar
    31    28    29   ar
    32    29    30   ar
    33    30    31   ar
    34    31    32    1
    35    31    33   ar
    36    33    34    1
    37    33    35   ar
    38    35    36   ar
    39     5     6   ar
    40     6     7   ar
    41    12    13   ar
    42    13     8   ar
    43     7     2   ar
    44    43    38    1
    45    36    24   ar
    46    36    29   ar
    47    15    18    1
@<TRIPOS>MOLECULE
*****
 43 47 0 0 0
SMALL
GASTEIGER

@<TRIPOS>ATOM
      1 C         141.1856  139.3976  161.6317 C.3     1  UNL1        0.1139
      2 C         140.4645  140.6820  165.8838 C.ar    1  UNL1       -0.0000
      3 C         139.3610  140.7819  164.8727 C.ar    1  UNL1       -0.0003
      4 C         139.6013  140.3538  163.4554 C.ar    1  UNL1       -0.0026
      5 C         140.9452  139.8258  163.0490 C.ar    1  UNL1       -0.0029
      6 C         142.0488  139.7259  164.0601 C.ar    1  UNL1       -0.0026
      7 C         141.8084  140.1540  165.4775 C.ar    1  UNL1       -0.0003
      8 C         139.2839  140.6160  169.6721 C.ar    1  UNL1        0.0534
      9 C         139.7434  141.9665  170.1359 C.ar    1  UNL1        0.0045
     10 C         140.4433  142.8889  169.1822 C.ar    1  UNL1        0.0001
     11 C         140.6836  142.4607  167.7648 C.ar    1  UNL1        0.0000
     12 C         140.2242  141.1102  167.3011 C.ar    1  UNL1        0.0001
     13 C         139.5243  140.1878  168.2548 C.ar    1  UNL1        0.0045
     14 C         136.3990  138.5829  171.4870 C.3     1  UNL1        0.1109
     15 N         137.0988  139.5052  170.5333 N.am    1  UNL1       -0.2992
     16 C         138.5841  139.6936  170.6258 C.2     1  UNL1        0.2459
     17 O         139.3695  138.9596  171.6719 O.2     1  UNL1       -0.2701
     18 H         136.5833  139.9870  169.8467 H       1  UNL1        0.1498
     19 N         140.0733  139.4689  160.6278 N.am    1  UNL1       -0.2727
     20 C         139.2148  138.2656  160.3730 C.3     1  UNL1        0.1152
     21 C         139.8197  140.7435  159.8787 C.2     1  UNL1        0.2491
     22 O         138.7075  140.8147  158.8748 O.2     1  UNL1       -0.2727
     23 C         140.6783  141.9467  160.1334 C.3     1  UNL1        0.1943
     24 N         140.4139  142.8180  161.3256 N.ar    1  UNL1       -0.2839
     25 C         139.0611  143.4370  161.5169 C.ar    1  UNL1        0.2806
     26 O         137.9726  143.1847  160.5161 O.2     1  UNL1       -0.2652
     27 C         138.7967  144.3081  162.7089 C.ar    1  UNL1        0.1595
     28 N         139.8852  144.5604  163.7097 N.ar    1  UNL1       -0.2374
     29 C         141.2381  143.9414  163.5184 C.ar    1  UNL1        0.0970
     30 C         142.3266  144.1936  164.5192 C.ar    1  UNL1        0.0160
     31 C         143.6794  143.5746  164.3279 C.ar    1  UNL1       -0.0242
     32 C         144.7679  143.8269  165.3287 C.3     1  UNL1        0.0307
     33 C         143.9438  142.7034  163.1358 C.ar    1  UNL1       -0.0243
     34 C         145.2966  142.0844  162.9445 C.3     1  UNL1        0.0307
     35 C         142.8553  142.4512  162.1350 C.ar    1  UNL1        0.0142
     36 C         141.5024  143.0702  162.3263 C.ar    1  UNL1        0.0803
     37 C         142.5383  138.8982  161.2182 C.3     1  UNL1        0.0968
     38 N         142.9632  138.9853  159.7823 N.3     1  UNL1       -0.2667
     39 C         142.5904  137.8947  158.8223 C.3     1  UNL1        0.1047
     40 C         143.0153  137.9818  157.3864 C.3     1  UNL1        0.1595
     41 O         143.8130  139.1596  156.9105 O.3     1  UNL1       -0.3508
     42 C         144.1858  140.2502  157.8704 C.3     1  UNL1        0.1595
     43 C         143.7609  140.1631  159.3064 C.3     1  UNL1        0.1047
@<TRIPOS>BOND
     1    14    15    1
     2    15    16   am
     3    16    17    2
     4    16     8    1
     5     8     9   ar
     6     9    10   ar
     7    10    11   ar
     8    11    12   ar
     9    12     2    1
    10     2     3   ar
    11     3     4   ar
    12     4     5   ar
    13     5     1    1
    14     1    37    1
    15    37    38    1
    16    38    39    1
    17    39    40    1
    18    40    41    1
    19    41    42    1
    20    42    43    1
    21     1    19    1
    22    19    20    1
    23    19    21   am
    24    21    22    2
    25    21    23    1
    26    23    24    1
    27    24    25   ar
    28    25    26    2
    29    25    27   ar
    30    27    28   ar
    31    28    29   ar
    32    29    30   ar
    33    30    31   ar
    34    31    32    1
    35    31    33   ar
    36    33    34    1
    37    33    35   ar
    38    35    36   ar
    39     5     6   ar
    40     6     7   ar
    41    12    13   ar
    42    13     8   ar
    43     7     2   ar
    44    43    38    1
    45    36    24   ar
    46    36    29   ar
    47    15    18    1
@<TRIPOS>MOLECULE
*****
 43 47 0 0 0
SMALL
GASTEIGER

@<TRIPOS>ATOM
      1 C         140.7386  138.9591  161.4644 C.3     1  UNL1        0.1139
      2 C         140.2902  140.4152  165.6986 C.ar    1  UNL1       -0.0000
      3 C         139.0892  139.9332  164.9400 C.ar    1  UNL1       -0.0003
      4 C         139.2387  139.4478  163.5287 C.ar    1  UNL1       -0.0026
      5 C         140.5891  139.4445  162.8758 C.ar    1  UNL1       -0.0029
      6 C         141.7901  139.9265  163.6342 C.ar    1  UNL1       -0.0026
      7 C         141.6406  140.4119  165.0457 C.ar    1  UNL1       -0.0003
      8 C         139.2947  140.5315  169.5385 C.ar    1  UNL1        0.0534
      9 C         139.8417  141.8714  169.9328 C.ar    1  UNL1        0.0045
     10 C         140.5382  142.7259  168.9156 C.ar    1  UNL1        0.0001
     11 C         140.6877  142.2405  167.5041 C.ar    1  UNL1        0.0000
     12 C         140.1407  140.9006  167.1100 C.ar    1  UNL1        0.0001
     13 C         139.4442  140.0461  168.1272 C.ar    1  UNL1        0.0045
     14 C         136.4174  138.6201  171.4926 C.3     1  UNL1        0.1109
     15 N         137.1140  139.4746  170.4754 N.am    1  UNL1       -0.2992
     16 C         138.5981  139.6770  170.5557 C.2     1  UNL1        0.2459
     17 O         139.3857  139.0248  171.6532 O.2     1  UNL1       -0.2701
     18 H         136.5971  139.9026  169.7551 H       1  UNL1        0.1498
     19 N         142.0952  138.9157  160.8259 N.am    1  UNL1       -0.2727
     20 C         142.8414  137.6175  160.7377 C.3     1  UNL1        0.1152
     21 C         142.7057  140.1706  160.2757 C.2     1  UNL1        0.2491
     22 O         144.0624  140.1271  159.6372 O.2     1  UNL1       -0.2727
     23 C         141.9596  141.4688  160.3640 C.3     1  UNL1        0.1943
     24 N         142.3849  142.5125  161.3538 N.ar    1  UNL1       -0.2839
     25 C         143.8056  142.9931  161.3731 C.ar    1  UNL1        0.2806
     26 O         144.8011  142.4300  160.4026 O.2     1  UNL1       -0.2652
     27 C         144.2309  144.0368  162.3630 C.ar    1  UNL1        0.1595
     28 N         143.2354  144.5999  163.3335 N.ar    1  UNL1       -0.2374
     29 C         141.8146  144.1193  163.3142 C.ar    1  UNL1        0.0970
     30 C         140.8191  144.6825  164.2847 C.ar    1  UNL1        0.0160
     31 C         139.3984  144.2019  164.2653 C.ar    1  UNL1       -0.0242
     32 C         138.4029  144.7650  165.2358 C.3     1  UNL1        0.0307
     33 C         138.9730  143.1581  163.2755 C.ar    1  UNL1       -0.0243
     34 C         137.5523  142.6775  163.2562 C.3     1  UNL1        0.0307
     35 C         139.9685  142.5950  162.3050 C.ar    1  UNL1        0.0142
     36 C         141.3894  143.0756  162.3243 C.ar    1  UNL1        0.0803
     37 C         139.5314  138.5171  160.6914 C.3     1  UNL1        0.0968
     38 N         139.2171  139.1469  159.3668 N.3     1  UNL1       -0.2667
     39 C         139.8222  138.5936  158.1108 C.3     1  UNL1        0.1047
     40 C         139.5079  139.2234  156.7862 C.3     1  UNL1        0.1595
     41 O         138.5883  140.4066  156.7177 O.3     1  UNL1       -0.3508
     42 C         137.9832  140.9599  157.9737 C.3     1  UNL1        0.1595
     43 C         138.2976  140.3300  159.2983 C.3     1  UNL1        0.1047
@<TRIPOS>BOND
     1    14    15    1
     2    15    16   am
     3    16    17    2
     4    16     8    1
     5     8     9   ar
     6     9    10   ar
     7    10    11   ar
     8    11    12   ar
     9    12     2    1
    10     2     3   ar
    11     3     4   ar
    12     4     5   ar
    13     5     1    1
    14     1    37    1
    15    37    38    1
    16    38    39    1
    17    39    40    1
    18    40    41    1
    19    41    42    1
    20    42    43    1
    21     1    19    1
    22    19    20    1
    23    19    21   am
    24    21    22    2
    25    21    23    1
    26    23    24    1
    27    24    25   ar
    28    25    26    2
    29    25    27   ar
    30    27    28   ar
    31    28    29   ar
    32    29    30   ar
    33    30    31   ar
    34    31    32    1
    35    31    33   ar
    36    33    34    1
    37    33    35   ar
    38    35    36   ar
    39     5     6   ar
    40     6     7   ar
    41    12    13   ar
    42    13     8   ar
    43     7     2   ar
    44    43    38    1
    45    36    24   ar
    46    36    29   ar
    47    15    18    1
@<TRIPOS>MOLECULE
*****
 43 47 0 0 0
SMALL
GASTEIGER

@<TRIPOS>ATOM
      1 C         140.6886  139.0977  161.6057 C.3     1  UNL1        0.1139
      2 C         140.5983  140.2701  165.9493 C.ar    1  UNL1       -0.0000
      3 C         141.8971  140.2717  165.1988 C.ar    1  UNL1       -0.0003
      4 C         141.9272  139.8808  163.7510 C.ar    1  UNL1       -0.0026
      5 C         140.6585  139.4885  163.0535 C.ar    1  UNL1       -0.0029
      6 C         139.3597  139.4870  163.8039 C.ar    1  UNL1       -0.0026
      7 C         139.3296  139.8778  165.2518 C.ar    1  UNL1       -0.0003
      8 C         141.6167  141.9293  169.4075 C.ar    1  UNL1        0.0534
      9 C         140.5080  141.4426  170.2929 C.ar    1  UNL1        0.0045
     10 C         139.4294  140.5650  169.7304 C.ar    1  UNL1        0.0001
     11 C         139.4595  140.1742  168.2824 C.ar    1  UNL1        0.0000
     12 C         140.5682  140.6610  167.3971 C.ar    1  UNL1        0.0001
     13 C         141.6468  141.5385  167.9597 C.ar    1  UNL1        0.0045
     14 C         145.2135  143.2856  170.3947 C.3     1  UNL1        0.1109
     15 N         144.1348  142.4080  169.8322 N.am    1  UNL1       -0.2992
     16 C         142.6954  142.8069  169.9701 C.2     1  UNL1        0.2459
     17 O         142.3346  144.0833  170.6705 O.2     1  UNL1       -0.2701
     18 H         144.3716  141.5703  169.3724 H       1  UNL1        0.1498
     19 N         141.9997  138.9901  160.8849 N.am    1  UNL1       -0.2727
     20 C         142.6978  137.6658  160.7917 C.3     1  UNL1        0.1152
     21 C         142.6126  140.2069  160.2574 C.2     1  UNL1        0.2491
     22 O         143.9237  140.0993  159.5367 O.2     1  UNL1       -0.2727
     23 C         141.9145  141.5312  160.3507 C.3     1  UNL1        0.1943
     24 N         142.3607  142.5447  161.3625 N.ar    1  UNL1       -0.2839
     25 C         143.7874  143.0075  161.3817 C.ar    1  UNL1        0.2806
     26 O         144.7679  142.4568  160.3891 O.2     1  UNL1       -0.2652
     27 C         144.2335  144.0209  162.3936 C.ar    1  UNL1        0.1595
     28 N         143.2530  144.5716  163.3862 N.ar    1  UNL1       -0.2374
     29 C         141.8263  144.1089  163.3670 C.ar    1  UNL1        0.0970
     30 C         140.8458  144.6595  164.3596 C.ar    1  UNL1        0.0160
     31 C         139.4191  144.1968  164.3404 C.ar    1  UNL1       -0.0242
     32 C         138.4386  144.7475  165.3330 C.3     1  UNL1        0.0307
     33 C         138.9729  143.1833  163.3285 C.ar    1  UNL1       -0.0243
     34 C         137.5462  142.7205  163.3093 C.3     1  UNL1        0.0307
     35 C         139.9534  142.6326  162.3359 C.ar    1  UNL1        0.0142
     36 C         141.3802  143.0954  162.3551 C.ar    1  UNL1        0.0803
     37 C         139.4075  138.8144  160.8785 C.3     1  UNL1        0.0968
     38 N         139.1496  139.4428  159.5411 N.3     1  UNL1       -0.2667
     39 C         138.3811  140.7279  159.4519 C.3     1  UNL1        0.1047
     40 C         138.1231  141.3563  158.1145 C.3     1  UNL1        0.1595
     41 O         138.6337  140.6995  156.8663 O.3     1  UNL1       -0.3508
     42 C         139.4021  139.4144  156.9555 C.3     1  UNL1        0.1595
     43 C         139.6601  138.7860  158.2929 C.3     1  UNL1        0.1047
@<TRIPOS>BOND
     1    14    15    1
     2    15    16   am
     3    16    17    2
     4    16     8    1
     5     8     9   ar
     6     9    10   ar
     7    10    11   ar
     8    11    12   ar
     9    12     2    1
    10     2     3   ar
    11     3     4   ar
    12     4     5   ar
    13     5     1    1
    14     1    37    1
    15    37    38    1
    16    38    39    1
    17    39    40    1
    18    40    41    1
    19    41    42    1
    20    42    43    1
    21     1    19    1
    22    19    20    1
    23    19    21   am
    24    21    22    2
    25    21    23    1
    26    23    24    1
    27    24    25   ar
    28    25    26    2
    29    25    27   ar
    30    27    28   ar
    31    28    29   ar
    32    29    30   ar
    33    30    31   ar
    34    31    32    1
    35    31    33   ar
    36    33    34    1
    37    33    35   ar
    38    35    36   ar
    39     5     6   ar
    40     6     7   ar
    41    12    13   ar
    42    13     8   ar
    43     7     2   ar
    44    43    38    1
    45    36    24   ar
    46    36    29   ar
    47    15    18    1
@<TRIPOS>MOLECULE
*****
 43 47 0 0 0
SMALL
GASTEIGER

@<TRIPOS>ATOM
      1 C         142.5297  141.7190  161.0647 C.3     1  UNL1        0.1139
      2 C         142.7215  141.1914  165.5295 C.ar    1  UNL1       -0.0000
      3 C         142.6775  142.5693  164.9382 C.ar    1  UNL1       -0.0003
      4 C         142.6136  142.7451  163.4500 C.ar    1  UNL1       -0.0026
      5 C         142.5936  141.5431  162.5529 C.ar    1  UNL1       -0.0029
      6 C         142.6375  140.1653  163.1441 C.ar    1  UNL1       -0.0026
      7 C         142.7015  139.9893  164.6324 C.ar    1  UNL1       -0.0003
      8 C         143.3827  141.9442  169.3695 C.ar    1  UNL1        0.0534
      9 C         142.9132  140.6638  169.9943 C.ar    1  UNL1        0.0045
     10 C         142.3798  139.5593  169.1308 C.ar    1  UNL1        0.0001
     11 C         142.3159  139.7352  167.6425 C.ar    1  UNL1        0.0000
     12 C         142.7854  141.0155  167.0177 C.ar    1  UNL1        0.0001
     13 C         143.3187  142.1200  167.8813 C.ar    1  UNL1        0.0045
     14 C         145.9287  144.3821  171.1927 C.3     1  UNL1        0.1109
     15 N         145.3954  143.2777  170.3292 N.am    1  UNL1       -0.2992
     16 C         143.9160  143.0486  170.2330 C.2     1  UNL1        0.2459
     17 O         142.9701  143.9241  171.0004 O.2     1  UNL1       -0.2701
     18 H         146.0162  142.7031  169.8255 H       1  UNL1        0.1498
     19 N         142.4586  140.5172  160.1698 N.am    1  UNL1       -0.2727
     20 C         143.7190  139.9064  159.6328 C.3     1  UNL1        0.1152
     21 C         141.1271  139.9263  159.8119 C.2     1  UNL1        0.2491
     22 O         141.0560  138.7246  158.9171 O.2     1  UNL1       -0.2727
     23 C         139.8668  140.5372  160.3489 C.3     1  UNL1        0.1943
     24 N         139.4566  140.2839  161.7694 N.ar    1  UNL1       -0.2839
     25 C         139.2950  138.8771  162.2639 C.ar    1  UNL1        0.2806
     26 O         139.5435  137.7234  161.3380 O.2     1  UNL1       -0.2652
     27 C         138.8848  138.6239  163.6843 C.ar    1  UNL1        0.1595
     28 N         138.6363  139.7775  164.6102 N.ar    1  UNL1       -0.2374
     29 C         138.7979  141.1844  164.1157 C.ar    1  UNL1        0.0970
     30 C         138.5494  142.3380  165.0416 C.ar    1  UNL1        0.0160
     31 C         138.7110  143.7449  164.5471 C.ar    1  UNL1       -0.0242
     32 C         138.4625  144.8986  165.4730 C.3     1  UNL1        0.0307
     33 C         139.1212  143.9982  163.1266 C.ar    1  UNL1       -0.0243
     34 C         139.2828  145.4050  162.6321 C.3     1  UNL1        0.0307
     35 C         139.3697  142.8445  162.2007 C.ar    1  UNL1        0.0142
     36 C         139.2081  141.4376  162.6953 C.ar    1  UNL1        0.0803
     37 C         142.5369  143.0966  160.4712 C.3     1  UNL1        0.0968
     38 N         142.2282  143.2878  159.0158 N.3     1  UNL1       -0.2667
     39 C         140.8176  143.5469  158.5760 C.3     1  UNL1        0.1047
     40 C         140.5089  143.7381  157.1207 C.3     1  UNL1        0.1595
     41 O         141.6108  143.6704  156.1050 O.3     1  UNL1       -0.3508
     42 C         143.0212  143.4113  156.5448 C.3     1  UNL1        0.1595
     43 C         143.3299  143.2201  158.0002 C.3     1  UNL1        0.1047
@<TRIPOS>BOND
     1    14    15    1
     2    15    16   am
     3    16    17    2
     4    16     8    1
     5     8     9   ar
     6     9    10   ar
     7    10    11   ar
     8    11    12   ar
     9    12     2    1
    10     2     3   ar
    11     3     4   ar
    12     4     5   ar
    13     5     1    1
    14     1    37    1
    15    37    38    1
    16    38    39    1
    17    39    40    1
    18    40    41    1
    19    41    42    1
    20    42    43    1
    21     1    19    1
    22    19    20    1
    23    19    21   am
    24    21    22    2
    25    21    23    1
    26    23    24    1
    27    24    25   ar
    28    25    26    2
    29    25    27   ar
    30    27    28   ar
    31    28    29   ar
    32    29    30   ar
    33    30    31   ar
    34    31    32    1
    35    31    33   ar
    36    33    34    1
    37    33    35   ar
    38    35    36   ar
    39     5     6   ar
    40     6     7   ar
    41    12    13   ar
    42    13     8   ar
    43     7     2   ar
    44    43    38    1
    45    36    24   ar
    46    36    29   ar
    47    15    18    1
@<TRIPOS>MOLECULE
*****
 43 47 0 0 0
SMALL
GASTEIGER

@<TRIPOS>ATOM
      1 C         142.7047  140.8725  161.1627 C.3     1  UNL1        0.1139
      2 C         142.3713  141.5320  165.6016 C.ar    1  UNL1       -0.0000
      3 C         142.4498  140.1376  165.0543 C.ar    1  UNL1       -0.0003
      4 C         142.5609  139.9178  163.5747 C.ar    1  UNL1       -0.0026
      5 C         142.5935  141.0923  162.6423 C.ar    1  UNL1       -0.0029
      6 C         142.5150  142.4867  163.1895 C.ar    1  UNL1       -0.0026
      7 C         142.4039  142.7066  164.6692 C.ar    1  UNL1       -0.0003
      8 C         140.8659  141.6577  169.2714 C.ar    1  UNL1        0.0534
      9 C         142.0380  142.1915  170.0405 C.ar    1  UNL1        0.0045
     10 C         143.3211  142.5055  169.3298 C.ar    1  UNL1        0.0001
     11 C         143.4322  142.2857  167.8501 C.ar    1  UNL1        0.0000
     12 C         142.2602  141.7518  167.0812 C.ar    1  UNL1        0.0001
     13 C         140.9770  141.4379  167.7918 C.ar    1  UNL1        0.0045
     14 C         137.6417  139.6958  170.4983 C.3     1  UNL1        0.1109
     15 N         138.9248  140.0098  169.7876 N.am    1  UNL1       -0.2992
     16 C         139.5828  141.3437  169.9820 C.2     1  UNL1        0.2459
     17 O         138.9577  142.3636  170.8870 O.2     1  UNL1       -0.2701
     18 H         139.3351  139.3404  169.1937 H       1  UNL1        0.1498
     19 N         142.6714  142.0435  160.2258 N.am    1  UNL1       -0.2727
     20 C         143.9524  142.6182  159.6979 C.3     1  UNL1        0.1152
     21 C         141.3571  142.6398  159.8170 C.2     1  UNL1        0.2491
     22 O         141.3239  143.8108  158.8802 O.2     1  UNL1       -0.2727
     23 C         140.0761  142.0651  160.3450 C.3     1  UNL1        0.1943
     24 N         139.5076  142.5647  161.6401 N.ar    1  UNL1       -0.2839
     25 C         139.2751  144.0329  161.8404 C.ar    1  UNL1        0.2806
     26 O         139.6112  145.0017  160.7457 O.2     1  UNL1       -0.2652
     27 C         138.7066  144.5323  163.1355 C.ar    1  UNL1        0.1595
     28 N         138.3705  143.5635  164.2303 N.ar    1  UNL1       -0.2374
     29 C         138.6030  142.0953  164.0299 C.ar    1  UNL1        0.0970
     30 C         138.2669  141.1265  165.1247 C.ar    1  UNL1        0.0160
     31 C         138.4994  139.6582  164.9243 C.ar    1  UNL1       -0.0242
     32 C         138.1633  138.6894  166.0191 C.3     1  UNL1        0.0307
     33 C         139.0679  139.1587  163.6292 C.ar    1  UNL1       -0.0243
     34 C         139.3004  137.6905  163.4289 C.3     1  UNL1        0.0307
     35 C         139.4040  140.1275  162.5345 C.ar    1  UNL1        0.0142
     36 C         139.1715  141.5958  162.7348 C.ar    1  UNL1        0.0803
     37 C         142.8490  139.4816  160.6198 C.3     1  UNL1        0.0968
     38 N         142.1780  139.1058  159.3319 N.3     1  UNL1       -0.2667
     39 C         140.7463  138.6582  159.3349 C.3     1  UNL1        0.1047
     40 C         140.0754  138.2824  158.0470 C.3     1  UNL1        0.1595
     41 O         140.8361  138.3541  156.7562 O.3     1  UNL1       -0.3508
     42 C         142.2678  138.8017  156.7533 C.3     1  UNL1        0.1595
     43 C         142.9387  139.1775  158.0412 C.3     1  UNL1        0.1047
@<TRIPOS>BOND
     1    14    15    1
     2    15    16   am
     3    16    17    2
     4    16     8    1
     5     8     9   ar
     6     9    10   ar
     7    10    11   ar
     8    11    12   ar
     9    12     2    1
    10     2     3   ar
    11     3     4   ar
    12     4     5   ar
    13     5     1    1
    14     1    37    1
    15    37    38    1
    16    38    39    1
    17    39    40    1
    18    40    41    1
    19    41    42    1
    20    42    43    1
    21     1    19    1
    22    19    20    1
    23    19    21   am
    24    21    22    2
    25    21    23    1
    26    23    24    1
    27    24    25   ar
    28    25    26    2
    29    25    27   ar
    30    27    28   ar
    31    28    29   ar
    32    29    30   ar
    33    30    31   ar
    34    31    32    1
    35    31    33   ar
    36    33    34    1
    37    33    35   ar
    38    35    36   ar
    39     5     6   ar
    40     6     7   ar
    41    12    13   ar
    42    13     8   ar
    43     7     2   ar
    44    43    38    1
    45    36    24   ar
    46    36    29   ar
    47    15    18    1
