@<TRIPOS>MOLECULE
*****
 33 36 0 0 0
SMALL
GASTEIGER

@<TRIPOS>ATOM
      1 N         138.9098  139.2151  161.8386 N.3     1  UNL1       -0.2682
      2 C         140.3324  139.3593  161.3854 C.3     1  UNL1        0.1035
      3 C         140.7228  140.4984  160.4911 C.3     1  UNL1        0.1470
      4 C         141.1132  141.6376  159.5967 C.3     1  UNL1        0.1035
      5 N         140.0811  142.6326  159.1556 N.3     1  UNL1       -0.2673
      6 C         138.6584  142.4884  159.6089 C.3     1  UNL1        0.1035
      7 C         138.2680  141.3492  160.5032 C.3     1  UNL1        0.1470
      8 C         137.8776  140.2101  161.3975 C.3     1  UNL1        0.1035
      9 O         139.6906  141.4934  160.0500 O.3     1  UNL1       -0.3530
     10 C         138.5194  138.0759  162.7330 C.3     1  UNL1        0.0769
     11 C         139.4381  137.6387  163.8352 C.3     1  UNL1        0.0437
     12 C         139.4271  139.8196  167.7714 C.ar    1  UNL1        0.0684
     13 C         140.6455  139.8558  166.8973 C.ar    1  UNL1        0.0100
     14 C         140.6492  139.1289  165.5852 C.ar    1  UNL1       -0.0035
     15 C         139.4345  138.3657  165.1473 C.ar    1  UNL1       -0.0207
     16 C         138.2160  138.3295  166.0214 C.ar    1  UNL1       -0.0035
     17 C         138.2123  139.0564  167.3334 C.ar    1  UNL1        0.0100
     18 N         139.4198  141.2735  170.3955 N.1     1  UNL1       -0.1908
     19 C         139.4235  140.5465  169.0835 C.1     1  UNL1        0.1004
     20 C         140.4714  143.7718  158.2613 C.3     1  UNL1        0.0913
     21 C         140.4732  145.1750  158.7915 C.3     1  UNL1        0.1087
     22 N         141.3740  145.5445  159.9325 N.3     1  UNL1       -0.1780
     23 H         141.3860  146.5633  159.9801 H       1  UNL1        0.1488
     24 S         141.0730  145.0499  161.3162 S.O2    1  UNL1        0.0603
     25 O         139.6626  145.5437  161.1859 O.2     1  UNL1       -0.1530
     26 O         142.4833  144.5561  161.4464 O.2     1  UNL1       -0.1530
     27 C         140.7720  144.5552  162.7000 C.ar    1  UNL1        0.1221
     28 C         139.5779  145.0799  163.4408 C.ar    1  UNL1        0.0222
     29 C         139.2769  144.5852  164.8245 C.ar    1  UNL1        0.0310
     30 C         140.1700  143.5659  165.4674 C.ar    1  UNL1        0.1402
     31 F         139.8691  143.0712  166.8512 F       1  UNL1       -0.2042
     32 C         141.3641  143.0412  164.7265 C.ar    1  UNL1        0.0310
     33 C         141.6651  143.5358  163.3428 C.ar    1  UNL1        0.0222
@<TRIPOS>BOND
     1    18    19    3
     2    19    12    1
     3    12    13   ar
     4    13    14   ar
     5    14    15   ar
     6    15    11    1
     7    11    10    1
     8    10     1    1
     9     1     2    1
    10     2     3    1
    11     3     4    1
    12     4     5    1
    13     5    20    1
    14    20    21    1
    15    21    22    1
    16    22    24    1
    17    24    25    2
    18    24    26    2
    19    24    27    1
    20    27    28   ar
    21    28    29   ar
    22    29    30   ar
    23    30    31    1
    24    30    32   ar
    25    32    33   ar
    26     5     6    1
    27     6     7    1
    28     7     8    1
    29     7     9    1
    30    15    16   ar
    31    16    17   ar
    32    17    12   ar
    33     8     1    1
    34     9     3    1
    35    33    27   ar
    36    22    23    1
@<TRIPOS>MOLECULE
*****
 33 36 0 0 0
SMALL
GASTEIGER

@<TRIPOS>ATOM
      1 N         138.6541  139.4967  162.5762 N.3     1  UNL1       -0.2682
      2 C         137.6930  140.4518  163.2195 C.3     1  UNL1        0.1035
      3 C         137.8548  141.9292  163.0164 C.3     1  UNL1        0.1470
      4 C         138.0165  143.4066  162.8133 C.3     1  UNL1        0.1035
      5 N         139.1394  143.9288  161.9669 N.3     1  UNL1       -0.2673
      6 C         140.1005  142.9736  161.3236 C.3     1  UNL1        0.1035
      7 C         139.9388  141.4962  161.5267 C.3     1  UNL1        0.1470
      8 C         139.7770  140.0189  161.7298 C.3     1  UNL1        0.1035
      9 O         138.9776  142.4514  162.1700 O.3     1  UNL1       -0.3530
     10 C         138.4924  138.0193  162.7793 C.3     1  UNL1        0.0769
     11 C         139.0141  137.3724  164.0280 C.3     1  UNL1        0.0437
     12 C         139.3320  139.7549  167.8323 C.ar    1  UNL1        0.0684
     13 C         140.4858  139.7134  166.8747 C.ar    1  UNL1        0.0100
     14 C         140.3799  138.9192  165.6066 C.ar    1  UNL1       -0.0035
     15 C         139.1201  138.1666  165.2961 C.ar    1  UNL1       -0.0207
     16 C         137.9663  138.2081  166.2537 C.ar    1  UNL1       -0.0035
     17 C         138.0722  139.0022  167.5218 C.ar    1  UNL1        0.0100
     18 N         139.5441  141.3432  170.3685 N.1     1  UNL1       -0.1908
     19 C         139.4380  140.5491  169.1004 C.1     1  UNL1        0.1004
     20 C         139.3011  145.4061  161.7638 C.3     1  UNL1        0.0913
     21 C         140.6333  146.0542  161.9994 C.3     1  UNL1        0.1087
     22 N         141.3391  145.8631  163.3090 N.3     1  UNL1       -0.1780
     23 H         140.6226  145.8787  164.0348 H       1  UNL1        0.1488
     24 S         142.1657  144.6335  163.5431 S.O2    1  UNL1        0.0603
     25 O         141.2290  144.2118  164.6360 O.2     1  UNL1       -0.1530
     26 O         143.1025  145.0552  162.4501 O.2     1  UNL1       -0.1530
     27 C         142.9924  143.4038  163.7770 C.ar    1  UNL1        0.1221
     28 C         142.3546  142.1665  164.3357 C.ar    1  UNL1        0.0222
     29 C         143.1812  140.9369  164.5697 C.ar    1  UNL1        0.0310
     30 C         144.6455  140.9446  164.2450 C.ar    1  UNL1        0.1402
     31 F         145.4722  139.7150  164.4790 F       1  UNL1       -0.2042
     32 C         145.2834  142.1820  163.6864 C.ar    1  UNL1        0.0310
     33 C         144.4568  143.4116  163.4524 C.ar    1  UNL1        0.0222
@<TRIPOS>BOND
     1    18    19    3
     2    19    12    1
     3    12    13   ar
     4    13    14   ar
     5    14    15   ar
     6    15    11    1
     7    11    10    1
     8    10     1    1
     9     1     2    1
    10     2     3    1
    11     3     4    1
    12     4     5    1
    13     5    20    1
    14    20    21    1
    15    21    22    1
    16    22    24    1
    17    24    25    2
    18    24    26    2
    19    24    27    1
    20    27    28   ar
    21    28    29   ar
    22    29    30   ar
    23    30    31    1
    24    30    32   ar
    25    32    33   ar
    26     5     6    1
    27     6     7    1
    28     7     8    1
    29     7     9    1
    30    15    16   ar
    31    16    17   ar
    32    17    12   ar
    33     8     1    1
    34     9     3    1
    35    33    27   ar
    36    22    23    1
@<TRIPOS>MOLECULE
*****
 33 36 0 0 0
SMALL
GASTEIGER

@<TRIPOS>ATOM
      1 N         138.9548  139.0931  161.9150 N.3     1  UNL1       -0.2682
      2 C         137.9349  140.1784  161.7361 C.3     1  UNL1        0.1035
      3 C         138.2452  141.3641  160.8714 C.3     1  UNL1        0.1470
      4 C         138.5555  142.5498  160.0066 C.3     1  UNL1        0.1035
      5 N         139.8858  142.6503  159.3208 N.3     1  UNL1       -0.2673
      6 C         140.9057  141.5650  159.4997 C.3     1  UNL1        0.1035
      7 C         140.5954  140.3793  160.3644 C.3     1  UNL1        0.1470
      8 C         140.2851  139.1936  161.2291 C.3     1  UNL1        0.1035
      9 O         139.5755  141.4645  160.1855 O.3     1  UNL1       -0.3530
     10 C         138.6445  137.9074  162.7798 C.3     1  UNL1        0.0769
     11 C         139.5686  137.5344  163.9009 C.3     1  UNL1        0.0437
     12 C         139.4611  139.8366  167.7658 C.ar    1  UNL1        0.0684
     13 C         138.2372  139.1113  167.2906 C.ar    1  UNL1        0.0100
     14 C         138.2730  138.3439  166.0024 C.ar    1  UNL1       -0.0035
     15 C         139.5327  138.3018  165.1892 C.ar    1  UNL1       -0.0207
     16 C         140.7567  139.0272  165.6644 C.ar    1  UNL1       -0.0035
     17 C         140.7209  139.7946  166.9527 C.ar    1  UNL1        0.0100
     18 N         139.3894  141.3715  170.3425 N.1     1  UNL1       -0.1908
     19 C         139.4252  140.6041  169.0542 C.1     1  UNL1        0.1004
     20 C         140.1961  143.8360  158.4561 C.3     1  UNL1        0.0913
     21 C         141.3897  144.6928  158.7582 C.3     1  UNL1        0.1087
     22 N         141.3582  145.6396  159.9212 N.3     1  UNL1       -0.1780
     23 H         140.6498  146.3424  159.7096 H       1  UNL1        0.1488
     24 S         141.0606  145.1259  161.2986 S.O2    1  UNL1        0.0603
     25 O         139.6874  145.7248  161.2254 O.2     1  UNL1       -0.1530
     26 O         142.4339  144.5270  161.3719 O.2     1  UNL1       -0.1530
     27 C         140.7631  144.6121  162.6762 C.ar    1  UNL1        0.1221
     28 C         139.5075  145.0351  163.3795 C.ar    1  UNL1        0.0222
     29 C         139.2100  144.5214  164.7569 C.ar    1  UNL1        0.0310
     30 C         140.1680  143.5846  165.4312 C.ar    1  UNL1        0.1402
     31 F         139.8705  143.0709  166.8087 F       1  UNL1       -0.2042
     32 C         141.4236  143.1617  164.7279 C.ar    1  UNL1        0.0310
     33 C         141.7212  143.6754  163.3504 C.ar    1  UNL1        0.0222
@<TRIPOS>BOND
     1    18    19    3
     2    19    12    1
     3    12    13   ar
     4    13    14   ar
     5    14    15   ar
     6    15    11    1
     7    11    10    1
     8    10     1    1
     9     1     2    1
    10     2     3    1
    11     3     4    1
    12     4     5    1
    13     5    20    1
    14    20    21    1
    15    21    22    1
    16    22    24    1
    17    24    25    2
    18    24    26    2
    19    24    27    1
    20    27    28   ar
    21    28    29   ar
    22    29    30   ar
    23    30    31    1
    24    30    32   ar
    25    32    33   ar
    26     5     6    1
    27     6     7    1
    28     7     8    1
    29     7     9    1
    30    15    16   ar
    31    16    17   ar
    32    17    12   ar
    33     8     1    1
    34     9     3    1
    35    33    27   ar
    36    22    23    1
@<TRIPOS>MOLECULE
*****
 33 36 0 0 0
SMALL
GASTEIGER

@<TRIPOS>ATOM
      1 N         138.2941  140.2729  165.2797 N.3     1  UNL1       -0.2682
      2 C         137.6524  140.5283  163.9482 C.3     1  UNL1        0.1035
      3 C         137.8871  141.8295  163.2399 C.3     1  UNL1        0.1470
      4 C         138.1216  143.1308  162.5316 C.3     1  UNL1        0.1035
      5 N         138.9979  144.1766  163.1548 N.3     1  UNL1       -0.2673
      6 C         139.6396  143.9211  164.4864 C.3     1  UNL1        0.1035
      7 C         139.4050  142.6199  165.1947 C.3     1  UNL1        0.1470
      8 C         139.1704  141.3187  165.9030 C.3     1  UNL1        0.1035
      9 O         138.7633  142.8753  163.8632 O.3     1  UNL1       -0.3530
     10 C         138.0595  138.9716  165.9881 C.3     1  UNL1        0.0769
     11 C         138.7281  137.7207  165.4999 C.3     1  UNL1        0.0437
     12 C         142.1201  137.9851  162.5547 C.ar    1  UNL1        0.0684
     13 C         142.3845  138.1598  164.0209 C.ar    1  UNL1        0.0100
     14 C         141.2539  138.0717  165.0026 C.ar    1  UNL1       -0.0035
     15 C         139.8588  137.8089  164.5182 C.ar    1  UNL1       -0.0207
     16 C         139.5944  137.6341  163.0520 C.ar    1  UNL1       -0.0035
     17 C         140.7251  137.7222  162.0703 C.ar    1  UNL1        0.0100
     18 N         144.3815  138.1613  160.5913 N.1     1  UNL1       -0.1908
     19 C         143.2509  138.0732  161.5730 C.1     1  UNL1        0.1004
     20 C         139.2325  145.4778  162.4465 C.3     1  UNL1        0.0913
     21 C         140.6312  145.9828  162.2492 C.3     1  UNL1        0.1087
     22 N         141.6038  145.1941  161.4235 N.3     1  UNL1       -0.1780
     23 H         142.2712  145.8617  161.0371 H       1  UNL1        0.1488
     24 S         142.4065  144.0959  162.0557 S.O2    1  UNL1        0.0603
     25 O         141.7446  143.0944  161.1565 O.2     1  UNL1       -0.1530
     26 O         143.0685  145.0975  162.9549 O.2     1  UNL1       -0.1530
     27 C         143.2093  142.9978  162.6880 C.ar    1  UNL1        0.1221
     28 C         144.2281  142.2519  161.8783 C.ar    1  UNL1        0.0222
     29 C         145.0308  141.1538  162.5105 C.ar    1  UNL1        0.0310
     30 C         144.8147  140.8015  163.9524 C.ar    1  UNL1        0.1402
     31 F         145.6175  139.7033  164.5846 F       1  UNL1       -0.2042
     32 C         143.7959  141.5474  164.7621 C.ar    1  UNL1        0.0310
     33 C         142.9932  142.6455  164.1299 C.ar    1  UNL1        0.0222
@<TRIPOS>BOND
     1    18    19    3
     2    19    12    1
     3    12    13   ar
     4    13    14   ar
     5    14    15   ar
     6    15    11    1
     7    11    10    1
     8    10     1    1
     9     1     2    1
    10     2     3    1
    11     3     4    1
    12     4     5    1
    13     5    20    1
    14    20    21    1
    15    21    22    1
    16    22    24    1
    17    24    25    2
    18    24    26    2
    19    24    27    1
    20    27    28   ar
    21    28    29   ar
    22    29    30   ar
    23    30    31    1
    24    30    32   ar
    25    32    33   ar
    26     5     6    1
    27     6     7    1
    28     7     8    1
    29     7     9    1
    30    15    16   ar
    31    16    17   ar
    32    17    12   ar
    33     8     1    1
    34     9     3    1
    35    33    27   ar
    36    22    23    1
@<TRIPOS>MOLECULE
*****
 33 36 0 0 0
SMALL
GASTEIGER

@<TRIPOS>ATOM
      1 N         138.3817  140.4915  164.5785 N.3     1  UNL1       -0.2682
      2 C         138.0792  141.9551  164.7059 C.3     1  UNL1        0.1035
      3 C         138.4676  142.8995  163.6072 C.3     1  UNL1        0.1470
      4 C         138.8561  143.8441  162.5085 C.3     1  UNL1        0.1035
      5 N         139.5470  143.3249  161.2825 N.3     1  UNL1       -0.2673
      6 C         139.8495  141.8612  161.1552 C.3     1  UNL1        0.1035
      7 C         139.4611  140.9168  162.2539 C.3     1  UNL1        0.1470
      8 C         139.0727  139.9723  163.3525 C.3     1  UNL1        0.1035
      9 O         139.1586  142.3804  162.3812 O.3     1  UNL1       -0.3530
     10 C         137.9933  139.5469  165.6772 C.3     1  UNL1        0.0769
     11 C         139.0375  139.0167  166.6145 C.3     1  UNL1        0.0437
     12 C         141.4081  141.8543  169.1793 C.ar    1  UNL1        0.0684
     13 C         140.1574  141.2242  169.7166 C.ar    1  UNL1        0.0100
     14 C         139.3672  140.2784  168.8617 C.ar    1  UNL1       -0.0035
     15 C         139.8277  139.9626  167.4695 C.ar    1  UNL1       -0.0207
     16 C         141.0784  140.5927  166.9322 C.ar    1  UNL1       -0.0035
     17 C         141.8687  141.5385  167.7871 C.ar    1  UNL1        0.0100
     18 N         142.9885  143.7460  170.8893 N.1     1  UNL1       -0.1908
     19 C         142.1984  142.8001  170.0343 C.1     1  UNL1        0.1004
     20 C         139.9354  144.2694  160.1839 C.3     1  UNL1        0.0913
     21 C         141.3573  144.7307  160.0592 C.3     1  UNL1        0.1087
     22 N         142.1701  144.9974  161.2913 N.3     1  UNL1       -0.1780
     23 H         141.5436  145.4315  161.9691 H       1  UNL1        0.1488
     24 S         142.8547  143.8650  161.9977 S.O2    1  UNL1        0.0603
     25 O         143.5441  143.4853  160.7209 O.2     1  UNL1       -0.1530
     26 O         142.1652  144.2448  163.2746 O.2     1  UNL1       -0.1530
     27 C         143.5393  142.7326  162.7042 C.ar    1  UNL1        0.1221
     28 C         142.7304  141.7279  163.4699 C.ar    1  UNL1        0.0222
     29 C         143.4150  140.5955  164.1764 C.ar    1  UNL1        0.0310
     30 C         144.9083  140.4679  164.1172 C.ar    1  UNL1        0.1402
     31 F         145.5929  139.3355  164.8237 F       1  UNL1       -0.2042
     32 C         145.7172  141.4727  163.3516 C.ar    1  UNL1        0.0310
     33 C         145.0326  142.6051  162.6451 C.ar    1  UNL1        0.0222
@<TRIPOS>BOND
     1    18    19    3
     2    19    12    1
     3    12    13   ar
     4    13    14   ar
     5    14    15   ar
     6    15    11    1
     7    11    10    1
     8    10     1    1
     9     1     2    1
    10     2     3    1
    11     3     4    1
    12     4     5    1
    13     5    20    1
    14    20    21    1
    15    21    22    1
    16    22    24    1
    17    24    25    2
    18    24    26    2
    19    24    27    1
    20    27    28   ar
    21    28    29   ar
    22    29    30   ar
    23    30    31    1
    24    30    32   ar
    25    32    33   ar
    26     5     6    1
    27     6     7    1
    28     7     8    1
    29     7     9    1
    30    15    16   ar
    31    16    17   ar
    32    17    12   ar
    33     8     1    1
    34     9     3    1
    35    33    27   ar
    36    22    23    1
@<TRIPOS>MOLECULE
*****
 33 36 0 0 0
SMALL
GASTEIGER

@<TRIPOS>ATOM
      1 N         143.0961  139.4950  163.9111 N.3     1  UNL1       -0.2682
      2 C         142.7421  138.2579  163.1402 C.3     1  UNL1        0.1035
      3 C         141.9071  138.3614  161.8984 C.3     1  UNL1        0.1470
      4 C         141.0722  138.4647  160.6565 C.3     1  UNL1        0.1035
      5 N         140.5912  139.8052  160.1856 N.3     1  UNL1       -0.2673
      6 C         140.9453  141.0423  160.9565 C.3     1  UNL1        0.1035
      7 C         141.7802  140.9389  162.1983 C.3     1  UNL1        0.1470
      8 C         142.6152  140.8355  163.4401 C.3     1  UNL1        0.1035
      9 O         141.4262  139.7019  161.4275 O.3     1  UNL1       -0.3530
     10 C         143.9311  139.3916  165.1530 C.3     1  UNL1        0.0769
     11 C         143.3419  138.8175  166.4072 C.3     1  UNL1        0.0437
     12 C         140.9814  141.4473  169.1932 C.ar    1  UNL1        0.0684
     13 C         141.1404  141.8330  167.7524 C.ar    1  UNL1        0.0100
     14 C         141.9272  140.9565  166.8238 C.ar    1  UNL1       -0.0035
     15 C         142.5550  139.6941  167.3359 C.ar    1  UNL1       -0.0207
     16 C         142.3960  139.3083  168.7767 C.ar    1  UNL1       -0.0035
     17 C         141.6092  140.1849  169.7053 C.ar    1  UNL1        0.0100
     18 N         139.4077  143.2005  171.0506 N.1     1  UNL1       -0.1908
     19 C         140.1945  142.3239  170.1219 C.1     1  UNL1        0.1004
     20 C         139.7563  139.9086  158.9438 C.3     1  UNL1        0.0913
     21 C         138.3325  140.3722  159.0337 C.3     1  UNL1        0.1087
     22 N         137.3854  139.7053  159.9868 N.3     1  UNL1       -0.1780
     23 H         137.2571  138.7497  159.6541 H       1  UNL1        0.1488
     24 S         137.7285  139.6141  161.4442 S.O2    1  UNL1        0.0603
     25 O         137.5743  141.1004  161.5735 O.2     1  UNL1       -0.1530
     26 O         137.8828  138.1277  161.3148 O.2     1  UNL1       -0.1530
     27 C         138.0716  139.5227  162.9016 C.ar    1  UNL1        0.1221
     28 C         138.6157  138.2436  163.4653 C.ar    1  UNL1        0.0222
     29 C         138.9588  138.1522  164.9226 C.ar    1  UNL1        0.0310
     30 C         138.7578  139.3400  165.8163 C.ar    1  UNL1        0.1402
     31 F         139.1009  139.2487  167.2737 F       1  UNL1       -0.2042
     32 C         138.2137  140.6192  165.2526 C.ar    1  UNL1        0.0310
     33 C         137.8706  140.7105  163.7952 C.ar    1  UNL1        0.0222
@<TRIPOS>BOND
     1    18    19    3
     2    19    12    1
     3    12    13   ar
     4    13    14   ar
     5    14    15   ar
     6    15    11    1
     7    11    10    1
     8    10     1    1
     9     1     2    1
    10     2     3    1
    11     3     4    1
    12     4     5    1
    13     5    20    1
    14    20    21    1
    15    21    22    1
    16    22    24    1
    17    24    25    2
    18    24    26    2
    19    24    27    1
    20    27    28   ar
    21    28    29   ar
    22    29    30   ar
    23    30    31    1
    24    30    32   ar
    25    32    33   ar
    26     5     6    1
    27     6     7    1
    28     7     8    1
    29     7     9    1
    30    15    16   ar
    31    16    17   ar
    32    17    12   ar
    33     8     1    1
    34     9     3    1
    35    33    27   ar
    36    22    23    1
@<TRIPOS>MOLECULE
*****
 33 36 0 0 0
SMALL
GASTEIGER

@<TRIPOS>ATOM
      1 N         139.0700  139.5443  163.8623 N.3     1  UNL1       -0.2682
      2 C         137.9948  140.5762  163.6918 C.3     1  UNL1        0.1035
      3 C         138.0252  141.5032  162.5130 C.3     1  UNL1        0.1470
      4 C         138.0556  142.4304  161.3342 C.3     1  UNL1        0.1035
      5 N         139.1613  142.3256  160.3260 N.3     1  UNL1       -0.2673
      6 C         140.2365  141.2937  160.4966 C.3     1  UNL1        0.1035
      7 C         140.2061  140.3666  161.6753 C.3     1  UNL1        0.1470
      8 C         140.1756  139.4395  162.8541 C.3     1  UNL1        0.1035
      9 O         139.1309  141.3985  161.5048 O.3     1  UNL1       -0.3530
     10 C         139.0396  138.6171  165.0411 C.3     1  UNL1        0.0769
     11 C         138.8289  139.1654  166.4213 C.3     1  UNL1        0.0437
     12 C         142.1792  141.3084  168.5268 C.ar    1  UNL1        0.0684
     13 C         142.4795  140.3958  167.3749 C.ar    1  UNL1        0.0100
     14 C         141.3627  139.6814  166.6730 C.ar    1  UNL1       -0.0035
     15 C         139.9457  139.8797  167.1231 C.ar    1  UNL1       -0.0207
     16 C         139.6454  140.7924  168.2751 C.ar    1  UNL1       -0.0035
     17 C         140.7621  141.5067  168.9769 C.ar    1  UNL1        0.0100
     18 N         144.4127  142.7371  169.9305 N.1     1  UNL1       -0.1908
     19 C         143.2960  142.0227  169.2286 C.1     1  UNL1        0.1004
     20 C         139.1917  143.2527  159.1472 C.3     1  UNL1        0.0913
     21 C         140.2184  144.3441  159.0777 C.3     1  UNL1        0.1087
     22 N         140.3906  145.2864  160.2320 N.3     1  UNL1       -0.1780
     23 H         139.4545  145.5557  160.5345 H       1  UNL1        0.1488
     24 S         141.1311  144.8424  161.4586 S.O2    1  UNL1        0.0603
     25 O         139.8946  145.0529  162.2812 O.2     1  UNL1       -0.1530
     26 O         142.3676  144.6319  160.6360 O.2     1  UNL1       -0.1530
     27 C         141.8716  144.3984  162.6852 C.ar    1  UNL1        0.1221
     28 C         143.2533  144.9159  162.9556 C.ar    1  UNL1        0.0222
     29 C         143.9938  144.4718  164.1821 C.ar    1  UNL1        0.0310
     30 C         143.3526  143.5104  165.1383 C.ar    1  UNL1        0.1402
     31 F         144.0931  143.0663  166.3649 F       1  UNL1       -0.2042
     32 C         141.9709  142.9929  164.8679 C.ar    1  UNL1        0.0310
     33 C         141.2304  143.4369  163.6414 C.ar    1  UNL1        0.0222
@<TRIPOS>BOND
     1    18    19    3
     2    19    12    1
     3    12    13   ar
     4    13    14   ar
     5    14    15   ar
     6    15    11    1
     7    11    10    1
     8    10     1    1
     9     1     2    1
    10     2     3    1
    11     3     4    1
    12     4     5    1
    13     5    20    1
    14    20    21    1
    15    21    22    1
    16    22    24    1
    17    24    25    2
    18    24    26    2
    19    24    27    1
    20    27    28   ar
    21    28    29   ar
    22    29    30   ar
    23    30    31    1
    24    30    32   ar
    25    32    33   ar
    26     5     6    1
    27     6     7    1
    28     7     8    1
    29     7     9    1
    30    15    16   ar
    31    16    17   ar
    32    17    12   ar
    33     8     1    1
    34     9     3    1
    35    33    27   ar
    36    22    23    1
@<TRIPOS>MOLECULE
*****
 33 36 0 0 0
SMALL
GASTEIGER

@<TRIPOS>ATOM
      1 N         142.6177  140.2053  160.9973 N.3     1  UNL1       -0.2682
      2 C         143.2775  141.3359  161.7296 C.3     1  UNL1        0.1035
      3 C         142.7408  142.7302  161.5964 C.3     1  UNL1        0.1470
      4 C         142.2041  144.1247  161.4632 C.3     1  UNL1        0.1035
      5 N         141.0076  144.3883  160.5978 N.3     1  UNL1       -0.2673
      6 C         140.3479  143.2575  159.8655 C.3     1  UNL1        0.1035
      7 C         140.8846  141.8632  159.9987 C.3     1  UNL1        0.1470
      8 C         141.4213  140.4689  160.1319 C.3     1  UNL1        0.1035
      9 O         141.5443  142.9939  160.7309 O.3     1  UNL1       -0.3530
     10 C         143.1544  138.8108  161.1305 C.3     1  UNL1        0.0769
     11 C         142.2111  137.6574  161.3027 C.3     1  UNL1        0.0437
     12 C         139.2886  137.6324  164.7244 C.ar    1  UNL1        0.0684
     13 C         140.7592  137.5094  164.9932 C.ar    1  UNL1        0.0100
     14 C         141.7333  137.5178  163.8527 C.ar    1  UNL1       -0.0035
     15 C         141.2369  137.6491  162.4433 C.ar    1  UNL1       -0.0207
     16 C         139.7663  137.7720  162.1746 C.ar    1  UNL1       -0.0035
     17 C         138.7922  137.7637  163.3151 C.ar    1  UNL1        0.0100
     18 N         137.3403  137.6158  167.0056 N.1     1  UNL1       -0.1908
     19 C         138.3144  137.6241  165.8651 C.1     1  UNL1        0.1004
     20 C         140.4709  145.7826  160.4646 C.3     1  UNL1        0.0913
     21 C         139.6341  146.3721  161.5611 C.3     1  UNL1        0.1087
     22 N         138.4864  145.5922  162.1305 N.3     1  UNL1       -0.1780
     23 H         137.9994  145.1666  161.3417 H       1  UNL1        0.1488
     24 S         138.7428  144.4971  163.1229 S.O2    1  UNL1        0.0603
     25 O         137.7639  143.6166  162.4042 O.2     1  UNL1       -0.1530
     26 O         139.7216  145.3776  163.8416 O.2     1  UNL1       -0.1530
     27 C         138.9992  143.4019  164.1154 C.ar    1  UNL1        0.1221
     28 C         138.1184  142.1880  164.1371 C.ar    1  UNL1        0.0222
     29 C         138.3748  141.0929  165.1295 C.ar    1  UNL1        0.0310
     30 C         139.5120  141.2117  166.1003 C.ar    1  UNL1        0.1402
     31 F         139.7685  140.1166  167.0928 F       1  UNL1       -0.2042
     32 C         140.3929  142.4256  166.0786 C.ar    1  UNL1        0.0310
     33 C         140.1365  143.5208  165.0862 C.ar    1  UNL1        0.0222
@<TRIPOS>BOND
     1    18    19    3
     2    19    12    1
     3    12    13   ar
     4    13    14   ar
     5    14    15   ar
     6    15    11    1
     7    11    10    1
     8    10     1    1
     9     1     2    1
    10     2     3    1
    11     3     4    1
    12     4     5    1
    13     5    20    1
    14    20    21    1
    15    21    22    1
    16    22    24    1
    17    24    25    2
    18    24    26    2
    19    24    27    1
    20    27    28   ar
    21    28    29   ar
    22    29    30   ar
    23    30    31    1
    24    30    32   ar
    25    32    33   ar
    26     5     6    1
    27     6     7    1
    28     7     8    1
    29     7     9    1
    30    15    16   ar
    31    16    17   ar
    32    17    12   ar
    33     8     1    1
    34     9     3    1
    35    33    27   ar
    36    22    23    1
@<TRIPOS>MOLECULE
*****
 33 36 0 0 0
SMALL
GASTEIGER

@<TRIPOS>ATOM
      1 N         144.1685  140.1281  163.3717 N.3     1  UNL1       -0.2682
      2 C         142.9538  139.8207  162.5472 C.3     1  UNL1        0.1035
      3 C         142.6973  140.5785  161.2784 C.3     1  UNL1        0.1470
      4 C         142.4406  141.3363  160.0095 C.3     1  UNL1        0.1035
      5 N         143.3987  142.4015  159.5653 N.3     1  UNL1       -0.2673
      6 C         144.6135  142.7089  160.3899 C.3     1  UNL1        0.1035
      7 C         144.8701  141.9511  161.6587 C.3     1  UNL1        0.1470
      8 C         145.1266  141.1934  162.9275 C.3     1  UNL1        0.1035
      9 O         143.6554  141.6437  160.8341 O.3     1  UNL1       -0.3530
     10 C         144.4252  139.3703  164.6406 C.3     1  UNL1        0.0769
     11 C         143.3564  138.4904  165.2179 C.3     1  UNL1        0.0437
     12 C         140.5665  140.1042  168.3584 C.ar    1  UNL1        0.0684
     13 C         141.9774  139.7465  168.7209 C.ar    1  UNL1        0.0100
     14 C         142.9074  139.2086  167.6741 C.ar    1  UNL1       -0.0035
     15 C         142.4264  139.0284  166.2648 C.ar    1  UNL1       -0.0207
     16 C         141.0155  139.3861  165.9023 C.ar    1  UNL1       -0.0035
     17 C         140.0856  139.9240  166.9491 C.ar    1  UNL1        0.0100
     18 N         138.7067  141.1801  170.4521 N.1     1  UNL1       -0.1908
     19 C         139.6366  140.6421  169.4052 C.1     1  UNL1        0.1004
     20 C         143.1421  143.1593  158.2965 C.3     1  UNL1        0.0913
     21 C         142.1392  144.2746  158.2787 C.3     1  UNL1        0.1087
     22 N         141.9935  145.1713  159.4723 N.3     1  UNL1       -0.1780
     23 H         141.7029  146.0839  159.1213 H       1  UNL1        0.1488
     24 S         141.0409  144.8070  160.5722 S.O2    1  UNL1        0.0603
     25 O         142.1634  144.8701  161.5652 O.2     1  UNL1       -0.1530
     26 O         139.9185  144.7439  159.5792 O.2     1  UNL1       -0.1530
     27 C         140.0882  144.4426  161.6721 C.ar    1  UNL1        0.1221
     28 C         140.1460  145.1664  162.9847 C.ar    1  UNL1        0.0222
     29 C         139.1934  144.8021  164.0846 C.ar    1  UNL1        0.0310
     30 C         138.1831  143.7141  163.8719 C.ar    1  UNL1        0.1402
     31 F         137.2304  143.3497  164.9718 F       1  UNL1       -0.2042
     32 C         138.1253  142.9903  162.5594 C.ar    1  UNL1        0.0310
     33 C         139.0779  143.3546  161.4595 C.ar    1  UNL1        0.0222
@<TRIPOS>BOND
     1    18    19    3
     2    19    12    1
     3    12    13   ar
     4    13    14   ar
     5    14    15   ar
     6    15    11    1
     7    11    10    1
     8    10     1    1
     9     1     2    1
    10     2     3    1
    11     3     4    1
    12     4     5    1
    13     5    20    1
    14    20    21    1
    15    21    22    1
    16    22    24    1
    17    24    25    2
    18    24    26    2
    19    24    27    1
    20    27    28   ar
    21    28    29   ar
    22    29    30   ar
    23    30    31    1
    24    30    32   ar
    25    32    33   ar
    26     5     6    1
    27     6     7    1
    28     7     8    1
    29     7     9    1
    30    15    16   ar
    31    16    17   ar
    32    17    12   ar
    33     8     1    1
    34     9     3    1
    35    33    27   ar
    36    22    23    1
