@<TRIPOS>MOLECULE
*****
 25 27 0 0 0
SMALL
GASTEIGER

@<TRIPOS>ATOM
      1 C         139.8196  139.2384  166.5579 C.ar    1  UNL1        0.0395
      2 C         141.2090  139.2103  165.9934 C.ar    1  UNL1        0.0063
      3 C         141.4749  138.5184  164.6894 C.ar    1  UNL1        0.0376
      4 C         140.3514  137.8546  163.9498 C.ar    1  UNL1        0.1453
      5 C         138.9619  137.8827  164.5142 C.ar    1  UNL1        0.0376
      6 C         138.6960  138.5746  165.8183 C.ar    1  UNL1        0.0063
      7 N         139.6662  141.5076  169.7031 N.ar    1  UNL1       -0.1509
      8 N         138.6226  140.4823  170.0343 N.ar    1  UNL1       -0.0451
      9 N         138.5530  139.5075  168.8964 N.ar    1  UNL1       -0.1077
     10 C         139.5536  139.9303  167.8620 C.ar    1  UNL1        0.2058
     11 N         140.2416  141.1665  168.3606 N.ar    1  UNL1       -0.1297
     12 C         140.0644  142.6701  170.5635 C.3     1  UNL1        0.1527
     13 C         141.1733  143.5810  170.1270 C.3     1  UNL1        0.0452
     14 N         143.4490  144.0497  171.2896 N.3     1  UNL1       -0.3211
     15 C         142.6012  143.2026  170.3875 C.3     1  UNL1        0.0673
     16 H         144.3844  143.6480  171.3530 H       1  UNL1        0.1189
     17 H         143.0293  144.0823  172.2187 H       1  UNL1        0.1189
     18 O         140.6173  137.1627  162.6457 O.3     1  UNL1       -0.4535
     19 C         141.3797  137.8687  161.5639 C.ar    1  UNL1        0.1454
     20 C         142.8796  137.8515  161.5698 C.ar    1  UNL1        0.0384
     21 C         143.6420  138.5575  160.4880 C.ar    1  UNL1        0.0145
     22 C         142.9045  139.2807  159.4003 C.ar    1  UNL1        0.0579
     23 CL        143.6669  139.9866  158.3185 Cl      1  UNL1       -0.0822
     24 C         141.4046  139.2978  159.3944 C.ar    1  UNL1        0.0145
     25 C         140.6422  138.5919  160.4762 C.ar    1  UNL1        0.0384
@<TRIPOS>BOND
     1    14    15    1
     2    15    13    1
     3    13    12    1
     4    12     7    1
     5     7     8   ar
     6     8     9   ar
     7     9    10   ar
     8    10     1    1
     9     1     2   ar
    10     2     3   ar
    11     3     4   ar
    12     4    18    1
    13    18    19    1
    14    19    20   ar
    15    20    21   ar
    16    21    22   ar
    17    22    23    1
    18    22    24   ar
    19    24    25   ar
    20     4     5   ar
    21     5     6   ar
    22    10    11   ar
    23    11     7   ar
    24     6     1   ar
    25    25    19   ar
    26    14    16    1
    27    14    17    1
@<TRIPOS>MOLECULE
*****
 25 27 0 0 0
SMALL
GASTEIGER

@<TRIPOS>ATOM
      1 C         141.0975  141.0862  168.9791 C.ar    1  UNL1        0.0395
      2 C         142.3274  141.5956  169.6704 C.ar    1  UNL1        0.0063
      3 C         143.3812  142.3216  168.8879 C.ar    1  UNL1        0.0376
      4 C         143.2052  142.5382  167.4141 C.ar    1  UNL1        0.1453
      5 C         141.9754  142.0287  166.7228 C.ar    1  UNL1        0.0376
      6 C         140.9215  141.3028  167.5053 C.ar    1  UNL1        0.0063
      7 N         137.9493  139.3049  170.3867 N.ar    1  UNL1       -0.1509
      8 N         138.8946  139.1810  171.5448 N.ar    1  UNL1       -0.0451
      9 N         140.1889  139.8332  171.1585 N.ar    1  UNL1       -0.1077
     10 C         140.0436  140.3602  169.7616 C.ar    1  UNL1        0.2058
     11 N         138.6595  140.0337  169.2846 N.ar    1  UNL1       -0.1297
     12 C         136.5411  138.7904  170.3390 C.3     1  UNL1        0.1527
     13 C         135.7675  138.6034  171.6105 C.3     1  UNL1        0.0452
     14 N         137.1263  136.4486  172.1208 N.3     1  UNL1       -0.3211
     15 C         136.0705  137.4409  172.5087 C.3     1  UNL1        0.0673
     16 H         137.1991  135.7304  172.8414 H       1  UNL1        0.1189
     17 H         138.0226  136.9259  172.0246 H       1  UNL1        0.1189
     18 O         144.2591  143.2642  166.6316 O.3     1  UNL1       -0.4535
     19 C         144.2949  143.1503  165.1364 C.ar    1  UNL1        0.1454
     20 C         143.7321  144.2510  164.2867 C.ar    1  UNL1        0.0384
     21 C         143.7679  144.1370  162.7914 C.ar    1  UNL1        0.0145
     22 C         144.3664  142.9225  162.1459 C.ar    1  UNL1        0.0579
     23 CL        144.4022  142.8086  160.6507 Cl      1  UNL1       -0.0822
     24 C         144.9292  141.8219  162.9956 C.ar    1  UNL1        0.0145
     25 C         144.8934  141.9358  164.4908 C.ar    1  UNL1        0.0384
@<TRIPOS>BOND
     1    14    15    1
     2    15    13    1
     3    13    12    1
     4    12     7    1
     5     7     8   ar
     6     8     9   ar
     7     9    10   ar
     8    10     1    1
     9     1     2   ar
    10     2     3   ar
    11     3     4   ar
    12     4    18    1
    13    18    19    1
    14    19    20   ar
    15    20    21   ar
    16    21    22   ar
    17    22    23    1
    18    22    24   ar
    19    24    25   ar
    20     4     5   ar
    21     5     6   ar
    22    10    11   ar
    23    11     7   ar
    24     6     1   ar
    25    25    19   ar
    26    14    16    1
    27    14    17    1
@<TRIPOS>MOLECULE
*****
 25 27 0 0 0
SMALL
GASTEIGER

@<TRIPOS>ATOM
      1 C         138.8309  139.4304  166.3703 C.ar    1  UNL1        0.0395
      2 C         139.0242  137.9978  165.9700 C.ar    1  UNL1        0.0063
      3 C         138.8794  137.5947  164.5325 C.ar    1  UNL1        0.0376
      4 C         138.5414  138.6242  163.4952 C.ar    1  UNL1        0.1453
      5 C         138.3481  140.0568  163.8955 C.ar    1  UNL1        0.0376
      6 C         138.4928  140.4599  165.3331 C.ar    1  UNL1        0.0063
      7 N         139.8031  140.8614  169.8449 N.ar    1  UNL1       -0.1509
      8 N         138.5935  140.0463  170.1952 N.ar    1  UNL1       -0.0451
      9 N         138.0821  139.4111  168.9363 N.ar    1  UNL1       -0.1077
     10 C         138.9756  139.8335  167.8079 C.ar    1  UNL1        0.2058
     11 N         140.0392  140.7299  168.3694 N.ar    1  UNL1       -0.1297
     12 C         140.6311  141.6666  170.8020 C.3     1  UNL1        0.1527
     13 C         142.1233  141.7051  170.6541 C.3     1  UNL1        0.0452
     14 N         143.3607  143.9184  171.2196 N.3     1  UNL1       -0.3211
     15 C         142.8003  142.9661  170.2053 C.3     1  UNL1        0.0673
     16 H         143.7815  144.7153  170.7418 H       1  UNL1        0.1189
     17 H         144.0703  143.4427  171.7769 H       1  UNL1        0.1189
     18 O         138.3966  138.2211  162.0577 O.3     1  UNL1       -0.4535
     19 C         139.5595  138.3566  161.1200 C.ar    1  UNL1        0.1454
     20 C         140.9445  138.0234  161.5897 C.ar    1  UNL1        0.0384
     21 C         142.1075  138.1590  160.6519 C.ar    1  UNL1        0.0145
     22 C         141.8853  138.6277  159.2445 C.ar    1  UNL1        0.0579
     23 CL        143.0482  138.7633  158.3068 Cl      1  UNL1       -0.0822
     24 C         140.5003  138.9609  158.7748 C.ar    1  UNL1        0.0145
     25 C         139.3374  138.8254  159.7125 C.ar    1  UNL1        0.0384
@<TRIPOS>BOND
     1    14    15    1
     2    15    13    1
     3    13    12    1
     4    12     7    1
     5     7     8   ar
     6     8     9   ar
     7     9    10   ar
     8    10     1    1
     9     1     2   ar
    10     2     3   ar
    11     3     4   ar
    12     4    18    1
    13    18    19    1
    14    19    20   ar
    15    20    21   ar
    16    21    22   ar
    17    22    23    1
    18    22    24   ar
    19    24    25   ar
    20     4     5   ar
    21     5     6   ar
    22    10    11   ar
    23    11     7   ar
    24     6     1   ar
    25    25    19   ar
    26    14    16    1
    27    14    17    1
@<TRIPOS>MOLECULE
*****
 25 27 0 0 0
SMALL
GASTEIGER

@<TRIPOS>ATOM
      1 C         143.3726  138.6592  162.6401 C.ar    1  UNL1        0.0395
      2 C         144.4954  139.3176  163.3856 C.ar    1  UNL1        0.0063
      3 C         144.5140  139.2964  164.8853 C.ar    1  UNL1        0.0376
      4 C         143.4097  138.6169  165.6395 C.ar    1  UNL1        0.1453
      5 C         142.2869  137.9585  164.8940 C.ar    1  UNL1        0.0376
      6 C         142.2683  137.9797  163.3943 C.ar    1  UNL1        0.0063
      7 N         142.9180  138.0833  158.8287 N.ar    1  UNL1       -0.1509
      8 N         143.7330  139.3427  158.8363 N.ar    1  UNL1       -0.0451
      9 N         144.0024  139.7117  160.2650 N.ar    1  UNL1       -0.1077
     10 C         143.3540  138.6804  161.1403 C.ar    1  UNL1        0.2058
     11 N         142.6838  137.6741  160.2526 N.ar    1  UNL1       -0.1297
     12 C         142.4240  137.3603  157.6108 C.3     1  UNL1        0.1527
     13 C         143.0919  136.0919  157.1692 C.3     1  UNL1        0.0452
     14 N         144.7258  137.1407  155.4428 N.3     1  UNL1       -0.3211
     15 C         143.7944  136.0359  155.8450 C.3     1  UNL1        0.0673
     16 H         145.1122  136.9408  154.5202 H       1  UNL1        0.1189
     17 H         145.4842  137.2099  156.1213 H       1  UNL1        0.1189
     18 O         143.4283  138.5957  167.1393 O.3     1  UNL1       -0.4535
     19 C         142.4933  139.4769  167.9135 C.ar    1  UNL1        0.1454
     20 C         141.7551  140.5817  167.2175 C.ar    1  UNL1        0.0384
     21 C         140.8200  141.4629  167.9918 C.ar    1  UNL1        0.0145
     22 C         140.6232  141.2391  169.4618 C.ar    1  UNL1        0.0579
     23 CL        139.6882  142.1203  170.2360 Cl      1  UNL1       -0.0822
     24 C         141.3614  140.1343  170.1578 C.ar    1  UNL1        0.0145
     25 C         142.2964  139.2531  169.3836 C.ar    1  UNL1        0.0384
@<TRIPOS>BOND
     1    14    15    1
     2    15    13    1
     3    13    12    1
     4    12     7    1
     5     7     8   ar
     6     8     9   ar
     7     9    10   ar
     8    10     1    1
     9     1     2   ar
    10     2     3   ar
    11     3     4   ar
    12     4    18    1
    13    18    19    1
    14    19    20   ar
    15    20    21   ar
    16    21    22   ar
    17    22    23    1
    18    22    24   ar
    19    24    25   ar
    20     4     5   ar
    21     5     6   ar
    22    10    11   ar
    23    11     7   ar
    24     6     1   ar
    25    25    19   ar
    26    14    16    1
    27    14    17    1
@<TRIPOS>MOLECULE
*****
 25 27 0 0 0
SMALL
GASTEIGER

@<TRIPOS>ATOM
      1 C         138.4760  139.3093  162.9020 C.ar    1  UNL1        0.0395
      2 C         138.1133  140.4869  163.7574 C.ar    1  UNL1        0.0063
      3 C         138.1415  140.3651  165.2521 C.ar    1  UNL1        0.0376
      4 C         138.5325  139.0658  165.8915 C.ar    1  UNL1        0.1453
      5 C         138.8952  137.8882  165.0362 C.ar    1  UNL1        0.0376
      6 C         138.8669  138.0099  163.5415 C.ar    1  UNL1        0.0063
      7 N         139.1124  139.3733  159.0736 N.ar    1  UNL1       -0.1509
      8 N         137.6962  139.8631  159.1403 N.ar    1  UNL1       -0.0451
      9 N         137.2854  139.8987  160.5825 N.ar    1  UNL1       -0.1077
     10 C         138.4478  139.4310  161.4072 C.ar    1  UNL1        0.2058
     11 N         139.5769  139.1063  160.4747 N.ar    1  UNL1       -0.1297
     12 C         139.9220  139.1839  157.8251 C.3     1  UNL1        0.1527
     13 C         140.6011  137.8723  157.5634 C.3     1  UNL1        0.0452
     14 N         138.8214  136.7648  156.0285 N.3     1  UNL1       -0.3211
     15 C         140.2549  137.0799  156.3378 C.3     1  UNL1        0.0673
     16 H         138.7708  136.2234  155.1656 H       1  UNL1        0.1189
     17 H         138.2990  137.6336  155.9160 H       1  UNL1        0.1189
     18 O         138.5607  138.9441  167.3864 O.3     1  UNL1       -0.4535
     19 C         139.4498  139.8414  168.1952 C.ar    1  UNL1        0.1454
     20 C         140.8086  140.2131  167.6801 C.ar    1  UNL1        0.0384
     21 C         141.6978  141.1104  168.4890 C.ar    1  UNL1        0.0145
     22 C         141.2281  141.6359  169.8131 C.ar    1  UNL1        0.0579
     23 CL        142.1172  142.5332  170.6219 Cl      1  UNL1       -0.0822
     24 C         139.8693  141.2642  170.3282 C.ar    1  UNL1        0.0145
     25 C         138.9802  140.3669  169.5194 C.ar    1  UNL1        0.0384
@<TRIPOS>BOND
     1    14    15    1
     2    15    13    1
     3    13    12    1
     4    12     7    1
     5     7     8   ar
     6     8     9   ar
     7     9    10   ar
     8    10     1    1
     9     1     2   ar
    10     2     3   ar
    11     3     4   ar
    12     4    18    1
    13    18    19    1
    14    19    20   ar
    15    20    21   ar
    16    21    22   ar
    17    22    23    1
    18    22    24   ar
    19    24    25   ar
    20     4     5   ar
    21     5     6   ar
    22    10    11   ar
    23    11     7   ar
    24     6     1   ar
    25    25    19   ar
    26    14    16    1
    27    14    17    1
@<TRIPOS>MOLECULE
*****
 25 27 0 0 0
SMALL
GASTEIGER

@<TRIPOS>ATOM
      1 C         141.5724  139.1717  166.1707 C.ar    1  UNL1        0.0395
      2 C         140.0958  139.1527  165.9078 C.ar    1  UNL1        0.0063
      3 C         139.5671  138.5458  164.6421 C.ar    1  UNL1        0.0376
      4 C         140.5151  137.9578  163.6393 C.ar    1  UNL1        0.1453
      5 C         141.9917  137.9768  163.9021 C.ar    1  UNL1        0.0376
      6 C         142.5204  138.5838  165.1678 C.ar    1  UNL1        0.0063
      7 N         142.6322  141.3778  169.1833 N.ar    1  UNL1       -0.1509
      8 N         143.1975  140.0477  169.5850 N.ar    1  UNL1       -0.0451
      9 N         142.8694  139.0595  168.5053 N.ar    1  UNL1       -0.1077
     10 C         142.1012  139.7787  167.4364 C.ar    1  UNL1        0.2058
     11 N         141.9546  141.2115  167.8555 N.ar    1  UNL1       -0.1297
     12 C         142.7276  142.6506  169.9712 C.3     1  UNL1        0.1527
     13 C         141.5342  143.5519  170.0877 C.3     1  UNL1        0.0452
     14 N         140.3300  142.1424  171.9079 N.3     1  UNL1       -0.3211
     15 C         140.2678  143.0428  170.7099 C.3     1  UNL1        0.0673
     16 H         139.3835  141.8948  172.1966 H       1  UNL1        0.1189
     17 H         140.8030  142.6251  172.6719 H       1  UNL1        0.1189
     18 O         139.9863  137.3508  162.3735 O.3     1  UNL1       -0.4535
     19 C         139.4095  138.2301  161.3040 C.ar    1  UNL1        0.1454
     20 C         140.1991  138.5153  160.0609 C.ar    1  UNL1        0.0384
     21 C         139.6222  139.3947  158.9913 C.ar    1  UNL1        0.0145
     22 C         138.2559  139.9889  159.1648 C.ar    1  UNL1        0.0579
     23 CL        137.6792  140.8682  158.0952 Cl      1  UNL1       -0.0822
     24 C         137.4664  139.7036  160.4079 C.ar    1  UNL1        0.0145
     25 C         138.0431  138.8243  161.4774 C.ar    1  UNL1        0.0384
@<TRIPOS>BOND
     1    14    15    1
     2    15    13    1
     3    13    12    1
     4    12     7    1
     5     7     8   ar
     6     8     9   ar
     7     9    10   ar
     8    10     1    1
     9     1     2   ar
    10     2     3   ar
    11     3     4   ar
    12     4    18    1
    13    18    19    1
    14    19    20   ar
    15    20    21   ar
    16    21    22   ar
    17    22    23    1
    18    22    24   ar
    19    24    25   ar
    20     4     5   ar
    21     5     6   ar
    22    10    11   ar
    23    11     7   ar
    24     6     1   ar
    25    25    19   ar
    26    14    16    1
    27    14    17    1
@<TRIPOS>MOLECULE
*****
 25 27 0 0 0
SMALL
GASTEIGER

@<TRIPOS>ATOM
      1 C         141.6186  144.1763  162.5197 C.ar    1  UNL1        0.0395
      2 C         140.6671  143.2744  163.2485 C.ar    1  UNL1        0.0063
      3 C         141.0547  142.6895  164.5743 C.ar    1  UNL1        0.0376
      4 C         142.3938  143.0065  165.1712 C.ar    1  UNL1        0.1453
      5 C         143.3453  143.9084  164.4424 C.ar    1  UNL1        0.0376
      6 C         142.9577  144.4933  163.1167 C.ar    1  UNL1        0.0063
      7 N         141.3282  145.5378  158.8965 N.ar    1  UNL1       -0.1509
      8 N         139.9410  145.7848  159.4110 N.ar    1  UNL1       -0.0451
      9 N         139.8810  145.3048  160.8309 N.ar    1  UNL1       -0.1077
     10 C         141.2311  144.7612  161.1939 C.ar    1  UNL1        0.2058
     11 N         142.1255  144.9052  159.9984 N.ar    1  UNL1       -0.1297
     12 C         141.8301  145.8659  157.5215 C.3     1  UNL1        0.1527
     13 C         140.9651  145.6022  156.3248 C.3     1  UNL1        0.0452
     14 N         139.3374  147.5754  156.7795 N.3     1  UNL1       -0.3211
     15 C         140.0448  146.6711  155.8143 C.3     1  UNL1        0.0673
     16 H         138.7576  148.2369  156.2632 H       1  UNL1        0.1189
     17 H         140.0250  148.0861  157.3334 H       1  UNL1        0.1189
     18 O         142.7814  142.4216  166.4970 O.3     1  UNL1       -0.4535
     19 C         141.7263  141.8772  167.4138 C.ar    1  UNL1        0.1454
     20 C         141.1036  142.7640  168.4510 C.ar    1  UNL1        0.0384
     21 C         140.0485  142.2195  169.3677 C.ar    1  UNL1        0.0145
     22 C         139.6163  140.7882  169.2474 C.ar    1  UNL1        0.0579
     23 CL        138.5613  140.2438  170.1641 Cl      1  UNL1       -0.0822
     24 C         140.2390  139.9014  168.2102 C.ar    1  UNL1        0.0145
     25 C         141.2940  140.4458  167.2934 C.ar    1  UNL1        0.0384
@<TRIPOS>BOND
     1    14    15    1
     2    15    13    1
     3    13    12    1
     4    12     7    1
     5     7     8   ar
     6     8     9   ar
     7     9    10   ar
     8    10     1    1
     9     1     2   ar
    10     2     3   ar
    11     3     4   ar
    12     4    18    1
    13    18    19    1
    14    19    20   ar
    15    20    21   ar
    16    21    22   ar
    17    22    23    1
    18    22    24   ar
    19    24    25   ar
    20     4     5   ar
    21     5     6   ar
    22    10    11   ar
    23    11     7   ar
    24     6     1   ar
    25    25    19   ar
    26    14    16    1
    27    14    17    1
@<TRIPOS>MOLECULE
*****
 25 27 0 0 0
SMALL
GASTEIGER

@<TRIPOS>ATOM
      1 C         140.9888  145.1420  160.2378 C.ar    1  UNL1        0.0395
      2 C         139.9251  145.8868  160.9886 C.ar    1  UNL1        0.0063
      3 C         139.7155  145.6242  162.4504 C.ar    1  UNL1        0.0376
      4 C         140.5697  144.6169  163.1615 C.ar    1  UNL1        0.1453
      5 C         141.6334  143.8721  162.4107 C.ar    1  UNL1        0.0376
      6 C         141.8430  144.1347  160.9489 C.ar    1  UNL1        0.0063
      7 N         140.8026  146.0133  156.4600 N.ar    1  UNL1       -0.1509
      8 N         142.2396  145.6038  156.5925 N.ar    1  UNL1       -0.0451
      9 N         142.4842  145.2276  158.0237 N.ar    1  UNL1       -0.1077
     10 C         141.1984  145.4046  158.7758 C.ar    1  UNL1        0.2058
     11 N         140.1592  145.8902  157.8094 N.ar    1  UNL1       -0.1297
     12 C         140.1276  146.4664  155.1994 C.3     1  UNL1        0.1527
     13 C         139.8967  147.9284  154.9560 C.3     1  UNL1        0.0452
     14 N         138.6023  148.7083  157.0694 N.3     1  UNL1       -0.3211
     15 C         138.7162  148.6149  155.5767 C.3     1  UNL1        0.0673
     16 H         137.7447  149.2030  157.3147 H       1  UNL1        0.1189
     17 H         139.4056  149.2157  157.4406 H       1  UNL1        0.1189
     18 O         140.3601  144.3543  164.6234 O.3     1  UNL1       -0.4535
     19 C         139.8361  143.0247  165.0791 C.ar    1  UNL1        0.1454
     20 C         140.4099  142.3713  166.3012 C.ar    1  UNL1        0.0384
     21 C         139.8858  141.0416  166.7569 C.ar    1  UNL1        0.0145
     22 C         138.7880  140.3655  165.9903 C.ar    1  UNL1        0.0579
     23 CL        138.2640  139.0360  166.4459 Cl      1  UNL1       -0.0822
     24 C         138.2142  141.0190  164.7681 C.ar    1  UNL1        0.0145
     25 C         138.7382  142.3486  164.3125 C.ar    1  UNL1        0.0384
@<TRIPOS>BOND
     1    14    15    1
     2    15    13    1
     3    13    12    1
     4    12     7    1
     5     7     8   ar
     6     8     9   ar
     7     9    10   ar
     8    10     1    1
     9     1     2   ar
    10     2     3   ar
    11     3     4   ar
    12     4    18    1
    13    18    19    1
    14    19    20   ar
    15    20    21   ar
    16    21    22   ar
    17    22    23    1
    18    22    24   ar
    19    24    25   ar
    20     4     5   ar
    21     5     6   ar
    22    10    11   ar
    23    11     7   ar
    24     6     1   ar
    25    25    19   ar
    26    14    16    1
    27    14    17    1
@<TRIPOS>MOLECULE
*****
 25 27 0 0 0
SMALL
GASTEIGER

@<TRIPOS>ATOM
      1 C         143.3011  138.6460  162.8029 C.ar    1  UNL1        0.0395
      2 C         142.1902  137.9949  163.5723 C.ar    1  UNL1        0.0063
      3 C         142.2133  138.0000  165.0720 C.ar    1  UNL1        0.0376
      4 C         143.3473  138.6562  165.8025 C.ar    1  UNL1        0.1453
      5 C         144.4582  139.3072  165.0331 C.ar    1  UNL1        0.0376
      6 C         144.4351  139.3021  163.5333 C.ar    1  UNL1        0.0063
      7 N         142.7398  138.0767  159.0047 N.ar    1  UNL1       -0.1509
      8 N         143.7456  139.1894  158.9855 N.ar    1  UNL1       -0.0451
      9 N         144.0782  139.5381  160.4059 N.ar    1  UNL1       -0.1077
     10 C         143.2781  138.6409  161.3030 C.ar    1  UNL1        0.2058
     11 N         142.4509  137.7377  160.4370 N.ar    1  UNL1       -0.1297
     12 C         142.1300  137.4186  157.8026 C.3     1  UNL1        0.1527
     13 C         141.1659  138.1779  156.9400 C.3     1  UNL1        0.0452
     14 N         139.1248  136.6921  156.3267 N.3     1  UNL1       -0.3211
     15 C         139.6962  137.8902  157.0252 C.3     1  UNL1        0.0673
     16 H         138.1188  136.6510  156.4900 H       1  UNL1        0.1189
     17 H         139.5630  135.8457  156.6900 H       1  UNL1        0.1189
     18 O         143.3703  138.6613  167.3023 O.3     1  UNL1       -0.4535
     19 C         142.4821  139.6007  168.0629 C.ar    1  UNL1        0.1454
     20 C         142.1066  139.2941  169.4824 C.ar    1  UNL1        0.0384
     21 C         141.2183  140.2336  170.2429 C.ar    1  UNL1        0.0145
     22 C         140.7056  141.4797  169.5839 C.ar    1  UNL1        0.0579
     23 CL        139.8173  142.4191  170.3445 Cl      1  UNL1       -0.0822
     24 C         141.0810  141.7863  168.1644 C.ar    1  UNL1        0.0145
     25 C         141.9692  140.8469  167.4039 C.ar    1  UNL1        0.0384
@<TRIPOS>BOND
     1    14    15    1
     2    15    13    1
     3    13    12    1
     4    12     7    1
     5     7     8   ar
     6     8     9   ar
     7     9    10   ar
     8    10     1    1
     9     1     2   ar
    10     2     3   ar
    11     3     4   ar
    12     4    18    1
    13    18    19    1
    14    19    20   ar
    15    20    21   ar
    16    21    22   ar
    17    22    23    1
    18    22    24   ar
    19    24    25   ar
    20     4     5   ar
    21     5     6   ar
    22    10    11   ar
    23    11     7   ar
    24     6     1   ar
    25    25    19   ar
    26    14    16    1
    27    14    17    1
