@<TRIPOS>MOLECULE
*****
 58 60 0 0 0
SMALL
GASTEIGER

@<TRIPOS>ATOM
      1 C         142.0219  139.6504  164.4858 C.3     1  UNL1        0.1953
      2 O         142.6529  138.9703  163.3071 O.3     1  UNL1       -0.4497
      3 C         143.0649  138.8649  161.8687 C.2     1  UNL1        0.3188
      4 O         143.7403  137.5267  161.8121 O.2     1  UNL1       -0.2500
      5 C         143.1763  139.3549  160.4553 C.3     1  UNL1        0.1263
      6 C         143.8206  138.2117  160.1384 C.3     1  UNL1        0.0142
      7 C         142.9650  140.3434  159.3470 C.3     1  UNL1        0.1306
      8 C         142.4729  141.6347  158.7634 C.3     1  UNL1        0.0575
      9 C         142.8849  141.5291  157.3249 C.3     1  UNL1        0.0051
     10 C         141.7974  142.9727  158.8198 C.3     1  UNL1        0.1444
     11 C         141.0724  144.0928  159.5053 C.3     1  UNL1        0.1134
     12 C         141.2896  144.3894  158.0511 C.3     1  UNL1        0.0318
     13 O         140.5060  145.4296  159.1282 O.3     1  UNL1       -0.3844
     14 C         140.4414  144.7729  160.6840 C.3     1  UNL1        0.0307
     15 C         140.0294  144.8783  162.1224 C.3     1  UNL1        0.0167
     16 C         139.3539  146.2165  162.1789 C.3     1  UNL1        0.0015
     17 C         139.9180  144.3883  163.5358 C.3     1  UNL1        0.0532
     18 N         139.1929  145.5084  164.2212 N.3     1  UNL1       -0.3221
     19 C         140.1292  143.3998  164.6440 C.3     1  UNL1        0.0436
     20 C         139.4982  144.0799  165.8227 C.3     1  UNL1        0.0039
     21 C         140.6214  142.1085  165.2277 C.3     1  UNL1        0.1395
     22 O         140.2094  142.2141  166.6662 O.3     1  UNL1       -0.3819
     23 C         141.2968  140.7705  165.1712 C.3     1  UNL1        0.1493
     24 C         140.8002  141.0757  166.5533 C.3     1  UNL1        0.0355
     25 O         141.6094  139.6554  166.1246 O.3     1  UNL1       -0.3808
     26 H         140.6617  145.5922  158.1847 H       1  UNL1        0.2103
     27 H         139.0614  145.2761  165.2057 H       1  UNL1        0.1188
     28 H         138.2836  145.6452  163.7798 H       1  UNL1        0.1188
     29 H         139.7555  143.0590  166.8113 H       1  UNL1        0.2104
     30 H         141.2767  139.8818  167.0071 H       1  UNL1        0.2105
     31 C         143.6177  138.3912  166.1037 C.3     1  UNL1        0.0039
     32 C         142.2332  138.6619  165.5940 C.3     1  UNL1        0.0462
     33 O         143.5960  139.6633  158.1683 O.3     1  UNL1       -0.3323
     34 C         142.8436  138.5999  157.4247 C.3     1  UNL1        0.2375
     35 C         141.3437  138.6132  157.4108 C.3     1  UNL1        0.0910
     36 C         140.5911  137.5498  156.6671 C.3     1  UNL1        0.1246
     37 C         139.4402  136.7657  156.1097 C.3     1  UNL1        0.0324
     38 C         141.3386  136.4731  155.9375 C.3     1  UNL1        0.1623
     39 O         140.5860  135.4098  155.1939 O.3     1  UNL1       -0.3796
     40 C         142.8384  136.4600  155.9515 C.3     1  UNL1        0.1468
     41 C         143.5858  135.3833  155.2219 C.3     1  UNL1        0.0348
     42 O         143.5909  137.5233  156.6951 O.3     1  UNL1       -0.3304
     43 H         139.6328  135.5643  155.2856 H       1  UNL1        0.2105
     44 O         139.4441  138.3541  157.2032 O.3     1  UNL1       -0.3532
     45 C         139.4341  138.7801  158.6413 C.3     1  UNL1        0.1740
     46 O         141.9088  143.4628  157.4066 O.3     1  UNL1       -0.3287
     47 C         140.6882  143.9491  156.6830 C.3     1  UNL1        0.2643
     48 O         140.5098  145.4140  156.4138 O.3     1  UNL1       -0.3311
     49 C         139.2891  145.9002  155.6902 C.3     1  UNL1        0.1194
     50 C         139.1107  147.3651  155.4210 C.3     1  UNL1        0.0322
     51 C         138.2470  144.9218  155.2359 C.3     1  UNL1        0.0482
     52 C         138.4254  143.4570  155.5051 C.3     1  UNL1        0.0921
     53 C         139.6459  142.9706  156.2286 C.3     1  UNL1        0.1815
     54 O         139.8244  141.5058  156.4979 O.3     1  UNL1       -0.3783
     55 H         140.6594  141.3633  156.9705 H       1  UNL1        0.2106
     56 N         137.3831  142.4786  155.0507 N.3     1  UNL1       -0.2692
     57 C         136.4619  141.8455  156.0510 C.3     1  UNL1        0.0897
     58 C         137.2621  142.1332  153.5960 C.3     1  UNL1        0.0897
@<TRIPOS>BOND
     1    31    32    1
     2     1    32    1
     3     1     2    1
     4     2     3    1
     5     3     4    2
     6     3     5    1
     7     5     6    1
     8     5     7    1
     9     7    33    1
    10    34    33    1
    11    34    35    1
    12    35    36    1
    13    36    37    1
    14    36    44    1
    15    44    45    1
    16    36    38    1
    17    38    39    1
    18    38    40    1
    19    40    41    1
    20    40    42    1
    21     7     8    1
    22     8     9    1
    23     8    10    1
    24    10    46    1
    25    47    46    1
    26    47    48    1
    27    48    49    1
    28    49    50    1
    29    49    51    1
    30    51    52    1
    31    52    56    1
    32    56    57    1
    33    56    58    1
    34    52    53    1
    35    53    54    1
    36    10    11    1
    37    11    12    1
    38    11    13    1
    39    11    14    1
    40    14    15    1
    41    15    16    1
    42    15    17    1
    43    17    18    1
    44    17    19    1
    45    19    20    1
    46    19    21    1
    47    21    22    1
    48    21    23    1
    49    23    24    1
    50    23    25    1
    51    23     1    1
    52    42    34    1
    53    53    47    1
    54    39    43    1
    55    54    55    1
    56    13    26    1
    57    18    27    1
    58    18    28    1
    59    22    29    1
    60    25    30    1
@<TRIPOS>MOLECULE
*****
 58 60 0 0 0
SMALL
GASTEIGER

@<TRIPOS>ATOM
      1 C         140.8123  144.4256  162.1103 C.3     1  UNL1        0.1953
      2 O         141.3004  144.6238  160.7059 O.3     1  UNL1       -0.4497
      3 C         141.8476  144.1628  159.3876 C.2     1  UNL1        0.3188
      4 O         141.9582  145.4391  158.6073 O.2     1  UNL1       -0.2500
      5 C         142.3456  143.1337  158.4164 C.3     1  UNL1        0.1263
      6 C         142.5410  144.1188  157.5144 C.3     1  UNL1        0.0142
      7 C         142.6957  141.7404  157.9849 C.3     1  UNL1        0.1306
      8 C         142.8286  140.2588  158.1785 C.3     1  UNL1        0.0575
      9 C         143.3758  139.7978  156.8602 C.3     1  UNL1        0.0051
     10 C         142.7179  138.9825  158.9587 C.3     1  UNL1        0.1444
     11 C         142.3856  138.1642  160.1712 C.3     1  UNL1        0.1134
     12 C         142.9119  137.3067  159.0586 C.3     1  UNL1        0.0318
     13 O         142.4379  136.7193  160.5707 O.3     1  UNL1       -0.3844
     14 C         141.8975  137.9659  161.5756 C.3     1  UNL1        0.0307
     15 C         141.3503  138.4270  162.8939 C.3     1  UNL1        0.0167
     16 C         141.2396  137.1507  163.6742 C.3     1  UNL1        0.0015
     17 C         140.8523  139.4561  163.8650 C.3     1  UNL1        0.0532
     18 N         140.5200  138.6378  165.0774 N.3     1  UNL1       -0.3221
     19 C         140.5022  140.8494  164.2965 C.3     1  UNL1        0.0436
     20 C         140.0141  140.6512  165.7010 C.3     1  UNL1        0.0039
     21 C         140.3693  142.3310  164.1029 C.3     1  UNL1        0.1395
     22 O         139.8221  142.7920  165.4213 O.3     1  UNL1       -0.3819
     23 C         140.4800  143.6072  163.3227 C.3     1  UNL1        0.1493
     24 C         139.9406  143.8524  164.7007 C.3     1  UNL1        0.0355
     25 O         140.1965  145.0626  163.5493 O.3     1  UNL1       -0.3808
     26 H         142.7813  136.1920  159.8326 H       1  UNL1        0.2103
     27 H         140.1659  139.2488  165.8134 H       1  UNL1        0.1188
     28 H         141.3595  138.1608  165.4062 H       1  UNL1        0.1188
     29 H         139.7111  142.0291  166.0099 H       1  UNL1        0.2104
     30 H         139.8499  145.1887  164.4465 H       1  UNL1        0.2105
     31 C         139.5374  146.6529  161.7057 C.3     1  UNL1        0.0039
     32 C         140.4621  145.8189  162.5418 C.3     1  UNL1        0.0462
     33 O         143.1838  141.9386  156.5805 O.3     1  UNL1       -0.3323
     34 C         144.6533  142.0661  156.3083 C.3     1  UNL1        0.2375
     35 C         145.2079  141.6540  154.9769 C.3     1  UNL1        0.0910
     36 C         146.6775  141.7815  154.7046 C.3     1  UNL1        0.1246
     37 C         147.9873  141.7133  153.9767 C.3     1  UNL1        0.0324
     38 C         147.5925  142.3212  155.7637 C.3     1  UNL1        0.1623
     39 O         149.0620  142.4487  155.4914 O.3     1  UNL1       -0.3796
     40 C         147.0378  142.7333  157.0951 C.3     1  UNL1        0.1468
     41 C         147.9528  143.2730  158.1541 C.3     1  UNL1        0.0348
     42 O         145.5683  142.6058  157.3673 O.3     1  UNL1       -0.3304
     43 H         149.2519  142.1411  154.5912 H       1  UNL1        0.2105
     44 O         146.2175  141.2182  153.3927 O.3     1  UNL1       -0.3532
     45 C         145.4940  139.9048  153.3529 C.3     1  UNL1        0.1740
     46 O         143.2159  137.9535  157.9877 O.3     1  UNL1       -0.3287
     47 C         142.2516  137.2533  157.0767 C.3     1  UNL1        0.2643
     48 O         140.9352  137.8912  156.7449 O.3     1  UNL1       -0.3311
     49 C         139.9710  137.1910  155.8339 C.3     1  UNL1        0.1194
     50 C         138.6545  137.8289  155.5020 C.3     1  UNL1        0.0322
     51 C         140.3231  135.8529  155.2547 C.3     1  UNL1        0.0482
     52 C         141.6394  135.2149  155.5866 C.3     1  UNL1        0.0921
     53 C         142.6037  135.9151  156.4975 C.3     1  UNL1        0.1815
     54 O         143.9201  135.2772  156.8294 O.3     1  UNL1       -0.3783
     55 H         144.4193  135.8572  157.4255 H       1  UNL1        0.2106
     56 N         141.9915  133.8768  155.0074 N.3     1  UNL1       -0.2692
     57 C         142.0746  132.6725  155.8978 C.3     1  UNL1        0.0897
     58 C         142.2605  133.7429  153.5378 C.3     1  UNL1        0.0897
@<TRIPOS>BOND
     1    31    32    1
     2     1    32    1
     3     1     2    1
     4     2     3    1
     5     3     4    2
     6     3     5    1
     7     5     6    1
     8     5     7    1
     9     7    33    1
    10    34    33    1
    11    34    35    1
    12    35    36    1
    13    36    37    1
    14    36    44    1
    15    44    45    1
    16    36    38    1
    17    38    39    1
    18    38    40    1
    19    40    41    1
    20    40    42    1
    21     7     8    1
    22     8     9    1
    23     8    10    1
    24    10    46    1
    25    47    46    1
    26    47    48    1
    27    48    49    1
    28    49    50    1
    29    49    51    1
    30    51    52    1
    31    52    56    1
    32    56    57    1
    33    56    58    1
    34    52    53    1
    35    53    54    1
    36    10    11    1
    37    11    12    1
    38    11    13    1
    39    11    14    1
    40    14    15    1
    41    15    16    1
    42    15    17    1
    43    17    18    1
    44    17    19    1
    45    19    20    1
    46    19    21    1
    47    21    22    1
    48    21    23    1
    49    23    24    1
    50    23    25    1
    51    23     1    1
    52    42    34    1
    53    53    47    1
    54    39    43    1
    55    54    55    1
    56    13    26    1
    57    18    27    1
    58    18    28    1
    59    22    29    1
    60    25    30    1
@<TRIPOS>MOLECULE
*****
 58 60 0 0 0
SMALL
GASTEIGER

@<TRIPOS>ATOM
      1 C         141.6960  139.2358  163.2104 C.3     1  UNL1        0.1953
      2 O         142.1339  138.6320  161.9090 O.3     1  UNL1       -0.4497
      3 C         142.4146  138.6539  160.4357 C.2     1  UNL1        0.3188
      4 O         142.8928  137.2579  160.1662 O.2     1  UNL1       -0.2500
      5 C         142.4825  139.2970  159.0821 C.3     1  UNL1        0.1263
      6 C         142.9365  138.1290  158.5800 C.3     1  UNL1        0.0142
      7 C         142.3241  140.4339  158.1167 C.3     1  UNL1        0.1306
      8 C         141.9708  141.8397  157.7304 C.3     1  UNL1        0.0575
      9 C         142.2515  141.8615  156.2570 C.3     1  UNL1        0.0051
     10 C         141.4926  143.2356  157.9998 C.3     1  UNL1        0.1444
     11 C         140.9843  144.3454  158.8715 C.3     1  UNL1        0.1134
     12 C         141.1268  144.7898  157.4460 C.3     1  UNL1        0.0318
     13 O         140.5800  145.7799  158.7017 O.3     1  UNL1       -0.3844
     14 C         140.5464  144.9492  160.1730 C.3     1  UNL1        0.0307
     15 C         140.2657  144.9274  161.6462 C.3     1  UNL1        0.0167
     16 C         139.7875  146.3234  161.9157 C.3     1  UNL1        0.0015
     17 C         140.1978  144.2843  162.9998 C.3     1  UNL1        0.0532
     18 N         139.6894  145.3941  163.8715 N.3     1  UNL1       -0.3221
     19 C         140.3562  143.1473  163.9653 C.3     1  UNL1        0.0436
     20 C         139.9183  143.7511  165.2667 C.3     1  UNL1        0.0039
     21 C         140.7095  141.7415  164.3515 C.3     1  UNL1        0.1395
     22 O         140.4288  141.7198  165.8249 O.3     1  UNL1       -0.3819
     23 C         141.1877  140.3456  164.0821 C.3     1  UNL1        0.1493
     24 C         140.8466  140.5382  165.5301 C.3     1  UNL1        0.0355
     25 O         141.4166  139.0903  164.8707 O.3     1  UNL1       -0.3808
     26 H         140.6829  146.0369  157.7720 H       1  UNL1        0.2103
     27 H         139.6039  145.0604  164.8316 H       1  UNL1        0.1188
     28 H         138.7762  145.6995  163.5352 H       1  UNL1        0.1188
     29 H         140.1083  142.5911  166.1059 H       1  UNL1        0.2104
     30 H         141.1878  139.2462  165.8003 H       1  UNL1        0.2105
     31 C         140.9069  136.9370  164.1284 C.3     1  UNL1        0.0039
     32 C         141.8544  138.0988  164.1759 C.3     1  UNL1        0.0462
     33 O         142.7620  139.8302  156.8152 O.3     1  UNL1       -0.3323
     34 C         141.7856  139.0533  155.9827 C.3     1  UNL1        0.2375
     35 C         142.2495  137.8604  155.2006 C.3     1  UNL1        0.0910
     36 C         141.2731  137.0835  154.3680 C.3     1  UNL1        0.1246
     37 C         140.7316  136.0357  153.4412 C.3     1  UNL1        0.0324
     38 C         139.8328  137.4995  154.3177 C.3     1  UNL1        0.1623
     39 O         138.8564  136.7226  153.4852 O.3     1  UNL1       -0.3796
     40 C         139.3689  138.6925  155.0999 C.3     1  UNL1        0.1468
     41 C         137.9286  139.1085  155.0495 C.3     1  UNL1        0.0348
     42 O         140.3453  139.4693  155.9323 O.3     1  UNL1       -0.3304
     43 H         139.3163  135.9888  153.0482 H       1  UNL1        0.2105
     44 O         142.5253  136.3036  154.0965 O.3     1  UNL1       -0.3532
     45 C         142.4514  134.8238  153.8627 C.3     1  UNL1        0.1740
     46 O         141.5605  143.8787  156.6464 O.3     1  UNL1       -0.3287
     47 C         140.3463  144.5457  156.0712 C.3     1  UNL1        0.2643
     48 O         140.2661  146.0427  156.0206 O.3     1  UNL1       -0.3311
     49 C         139.0518  146.7097  155.4454 C.3     1  UNL1        0.1194
     50 C         138.9716  148.2067  155.3949 C.3     1  UNL1        0.0322
     51 C         137.9179  145.8797  154.9209 C.3     1  UNL1        0.0482
     52 C         137.9981  144.3827  154.9714 C.3     1  UNL1        0.0921
     53 C         139.2123  143.7157  155.5466 C.3     1  UNL1        0.1815
     54 O         139.2926  142.2187  155.5972 O.3     1  UNL1       -0.3783
     55 H         140.1364  141.9534  155.9952 H       1  UNL1        0.2106
     56 N         136.8641  143.5527  154.4468 N.3     1  UNL1       -0.2692
     57 C         136.5244  143.5847  152.9861 C.3     1  UNL1        0.0897
     58 C         136.0698  142.6909  155.3829 C.3     1  UNL1        0.0897
@<TRIPOS>BOND
     1    31    32    1
     2     1    32    1
     3     1     2    1
     4     2     3    1
     5     3     4    2
     6     3     5    1
     7     5     6    1
     8     5     7    1
     9     7    33    1
    10    34    33    1
    11    34    35    1
    12    35    36    1
    13    36    37    1
    14    36    44    1
    15    44    45    1
    16    36    38    1
    17    38    39    1
    18    38    40    1
    19    40    41    1
    20    40    42    1
    21     7     8    1
    22     8     9    1
    23     8    10    1
    24    10    46    1
    25    47    46    1
    26    47    48    1
    27    48    49    1
    28    49    50    1
    29    49    51    1
    30    51    52    1
    31    52    56    1
    32    56    57    1
    33    56    58    1
    34    52    53    1
    35    53    54    1
    36    10    11    1
    37    11    12    1
    38    11    13    1
    39    11    14    1
    40    14    15    1
    41    15    16    1
    42    15    17    1
    43    17    18    1
    44    17    19    1
    45    19    20    1
    46    19    21    1
    47    21    22    1
    48    21    23    1
    49    23    24    1
    50    23    25    1
    51    23     1    1
    52    42    34    1
    53    53    47    1
    54    39    43    1
    55    54    55    1
    56    13    26    1
    57    18    27    1
    58    18    28    1
    59    22    29    1
    60    25    30    1
@<TRIPOS>MOLECULE
*****
 58 60 0 0 0
SMALL
GASTEIGER

@<TRIPOS>ATOM
      1 C         142.1765  143.6042  153.9686 C.3     1  UNL1        0.1953
      2 O         143.2082  143.2114  154.9841 O.3     1  UNL1       -0.4497
      3 C         143.6759  142.5717  156.2577 C.2     1  UNL1        0.3188
      4 O         145.1514  142.8416  156.2445 O.2     1  UNL1       -0.2500
      5 C         143.4871  141.8119  157.5372 C.3     1  UNL1        0.1263
      6 C         144.8135  141.9187  157.7647 C.3     1  UNL1        0.0142
      7 C         142.6789  141.0825  158.5692 C.3     1  UNL1        0.1306
      8 C         141.4116  140.5279  159.1492 C.3     1  UNL1        0.0575
      9 C         141.8794  139.8883  160.4228 C.3     1  UNL1        0.0051
     10 C         139.9362  140.2581  159.1624 C.3     1  UNL1        0.1444
     11 C         138.5448  140.3263  158.6062 C.3     1  UNL1        0.1134
     12 C         138.5771  139.5905  159.9128 C.3     1  UNL1        0.0318
     13 O         137.1770  139.8569  159.0047 O.3     1  UNL1       -0.3844
     14 C         137.5130  140.7192  157.5907 C.3     1  UNL1        0.0307
     15 C         137.0453  141.3588  156.3171 C.3     1  UNL1        0.0167
     16 C         135.5698  141.0889  156.3303 C.3     1  UNL1        0.0015
     17 C         137.2342  142.1186  155.0376 C.3     1  UNL1        0.0532
     18 N         135.8427  142.1868  154.4814 N.3     1  UNL1       -0.3221
     19 C         138.0423  142.8480  154.0057 C.3     1  UNL1        0.0436
     20 C         137.0106  143.2409  152.9902 C.3     1  UNL1        0.0039
     21 C         139.3097  143.4026  153.4256 C.3     1  UNL1        0.1395
     22 O         138.8419  144.0422  152.1520 O.3     1  UNL1       -0.3819
     23 C         140.7851  143.6725  153.4124 C.3     1  UNL1        0.1493
     24 C         140.1129  144.2420  152.1984 C.3     1  UNL1        0.0355
     25 O         141.7694  144.3584  152.5122 O.3     1  UNL1       -0.3808
     26 H         137.2306  139.3861  159.8511 H       1  UNL1        0.2103
     27 H         135.8552  142.6920  153.5953 H       1  UNL1        0.1188
     28 H         135.2362  142.6733  155.1416 H       1  UNL1        0.1188
     29 H         137.8834  143.9223  152.0630 H       1  UNL1        0.2104
     30 H         141.3058  144.7152  151.7384 H       1  UNL1        0.2105
     31 C         144.3992  144.7324  153.2362 C.3     1  UNL1        0.0039
     32 C         142.9846  144.3336  152.9367 C.3     1  UNL1        0.0462
     33 O         143.7107  140.6897  159.5846 O.3     1  UNL1       -0.3323
     34 C         143.9208  141.5349  160.8059 C.3     1  UNL1        0.2375
     35 C         143.2923  142.8940  160.8945 C.3     1  UNL1        0.0910
     36 C         143.5024  143.7393  162.1158 C.3     1  UNL1        0.1246
     37 C         143.4102  144.9034  163.0572 C.3     1  UNL1        0.0324
     38 C         144.3411  143.2254  163.2483 C.3     1  UNL1        0.1623
     39 O         144.5512  144.0707  164.4695 O.3     1  UNL1       -0.3796
     40 C         144.9696  141.8663  163.1596 C.3     1  UNL1        0.1468
     41 C         145.8082  141.3525  164.2922 C.3     1  UNL1        0.0348
     42 O         144.7595  141.0211  161.9385 O.3     1  UNL1       -0.3304
     43 H         144.0800  144.9121  164.3652 H       1  UNL1        0.2105
     44 O         142.6317  144.6574  161.3102 O.3     1  UNL1       -0.3532
     45 C         141.2456  144.2316  160.9266 C.3     1  UNL1        0.1740
     46 O         139.7473  139.4983  160.4418 O.3     1  UNL1       -0.3287
     47 C         139.3246  140.2199  161.6871 C.3     1  UNL1        0.2643
     48 O         138.7804  141.6148  161.5976 O.3     1  UNL1       -0.3311
     49 C         138.3577  142.3362  162.8430 C.3     1  UNL1        0.1194
     50 C         137.8135  143.7312  162.7534 C.3     1  UNL1        0.0322
     51 C         138.4792  141.6628  164.1777 C.3     1  UNL1        0.0482
     52 C         139.0234  140.2679  164.2672 C.3     1  UNL1        0.0921
     53 C         139.4461  139.5463  163.0220 C.3     1  UNL1        0.1815
     54 O         139.9902  138.1514  163.1114 O.3     1  UNL1       -0.3783
     55 H         140.2135  137.8339  162.2225 H       1  UNL1        0.2106
     56 N         139.1448  139.5944  165.6021 N.3     1  UNL1       -0.2692
     57 C         140.3856  139.7781  166.4246 C.3     1  UNL1        0.0897
     58 C         138.0254  138.7374  166.1143 C.3     1  UNL1        0.0897
@<TRIPOS>BOND
     1    31    32    1
     2     1    32    1
     3     1     2    1
     4     2     3    1
     5     3     4    2
     6     3     5    1
     7     5     6    1
     8     5     7    1
     9     7    33    1
    10    34    33    1
    11    34    35    1
    12    35    36    1
    13    36    37    1
    14    36    44    1
    15    44    45    1
    16    36    38    1
    17    38    39    1
    18    38    40    1
    19    40    41    1
    20    40    42    1
    21     7     8    1
    22     8     9    1
    23     8    10    1
    24    10    46    1
    25    47    46    1
    26    47    48    1
    27    48    49    1
    28    49    50    1
    29    49    51    1
    30    51    52    1
    31    52    56    1
    32    56    57    1
    33    56    58    1
    34    52    53    1
    35    53    54    1
    36    10    11    1
    37    11    12    1
    38    11    13    1
    39    11    14    1
    40    14    15    1
    41    15    16    1
    42    15    17    1
    43    17    18    1
    44    17    19    1
    45    19    20    1
    46    19    21    1
    47    21    22    1
    48    21    23    1
    49    23    24    1
    50    23    25    1
    51    23     1    1
    52    42    34    1
    53    53    47    1
    54    39    43    1
    55    54    55    1
    56    13    26    1
    57    18    27    1
    58    18    28    1
    59    22    29    1
    60    25    30    1
@<TRIPOS>MOLECULE
*****
 58 60 0 0 0
SMALL
GASTEIGER

@<TRIPOS>ATOM
      1 C         138.9970  139.2225  165.7508 C.3     1  UNL1        0.1953
      2 O         138.7243  138.6631  164.3859 O.3     1  UNL1       -0.4497
      3 C         139.0008  138.4706  162.9243 C.2     1  UNL1        0.3188
      4 O         137.8896  137.5607  162.4914 O.2     1  UNL1       -0.2500
      5 C         139.7719  138.6830  161.6552 C.3     1  UNL1        0.1263
      6 C         138.8908  137.8830  161.0180 C.3     1  UNL1        0.0142
      7 C         140.8847  139.2582  160.8303 C.3     1  UNL1        0.1306
      8 C         142.1190  140.0825  160.6127 C.3     1  UNL1        0.0575
      9 C         142.3955  139.8899  159.1510 C.3     1  UNL1        0.0051
     10 C         143.2302  140.9923  161.0456 C.3     1  UNL1        0.1444
     11 C         143.9982  141.8077  162.0432 C.3     1  UNL1        0.1134
     12 C         144.6170  141.8858  160.6791 C.3     1  UNL1        0.0318
     13 O         145.2183  142.6801  162.0442 O.3     1  UNL1       -0.3844
     14 C         144.2710  142.3670  163.4081 C.3     1  UNL1        0.0307
     15 C         143.9944  142.5595  164.8697 C.3     1  UNL1        0.0167
     16 C         145.1056  143.4694  165.3027 C.3     1  UNL1        0.0015
     17 C         143.2233  142.3472  166.1388 C.3     1  UNL1        0.0532
     18 N         143.9914  143.1625  167.1364 N.3     1  UNL1       -0.3221
     19 C         142.1105  141.7719  166.9638 C.3     1  UNL1        0.0436
     20 C         142.3832  142.3313  168.3286 C.3     1  UNL1        0.0039
     21 C         140.8762  140.9477  167.1813 C.3     1  UNL1        0.1395
     22 O         140.5997  141.1403  168.6430 O.3     1  UNL1       -0.3819
     23 C         139.7650  140.0378  166.7484 C.3     1  UNL1        0.1493
     24 C         139.6708  140.3608  168.2102 C.3     1  UNL1        0.0355
     25 O         138.5851  139.3639  167.3836 O.3     1  UNL1       -0.3808
     26 H         145.5947  142.7106  161.1507 H       1  UNL1        0.2103
     27 H         143.5460  143.0884  168.0511 H       1  UNL1        0.1188
     28 H         144.0019  144.1389  166.8416 H       1  UNL1        0.1188
     29 H         141.2735  141.7240  169.0254 H       1  UNL1        0.2104
     30 H         138.5514  139.5914  168.3259 H       1  UNL1        0.2105
     31 C         137.6555  137.1649  166.5974 C.3     1  UNL1        0.0039
     32 C         137.8841  138.6472  166.5758 C.3     1  UNL1        0.0462
     33 O         140.6120  138.6989  159.4654 O.3     1  UNL1       -0.3323
     34 C         139.7428  139.4552  158.5050 C.3     1  UNL1        0.2375
     35 C         139.2775  140.8400  158.8453 C.3     1  UNL1        0.0910
     36 C         138.4082  141.5963  157.8849 C.3     1  UNL1        0.1246
     37 C         137.5793  142.7046  157.3064 C.3     1  UNL1        0.0324
     38 C         138.0043  140.9678  156.5841 C.3     1  UNL1        0.1623
     39 O         137.1351  141.7242  155.6238 O.3     1  UNL1       -0.3796
     40 C         138.4696  139.5830  156.2439 C.3     1  UNL1        0.1468
     41 C         138.0657  138.9545  154.9431 C.3     1  UNL1        0.0348
     42 O         139.3388  138.8267  157.2042 O.3     1  UNL1       -0.3304
     43 H         136.9262  142.5959  155.9944 H       1  UNL1        0.2105
     44 O         138.5243  142.6097  158.9847 O.3     1  UNL1       -0.3532
     45 C         138.3969  142.1807  160.4163 C.3     1  UNL1        0.1740
     46 O         144.0012  141.2047  159.7766 O.3     1  UNL1       -0.3287
     47 C         143.5296  142.2144  158.7725 C.3     1  UNL1        0.2643
     48 O         142.6599  143.3561  159.2086 O.3     1  UNL1       -0.3311
     49 C         142.1884  144.3657  158.2045 C.3     1  UNL1        0.1194
     50 C         141.3186  145.5074  158.6406 C.3     1  UNL1        0.0322
     51 C         142.5865  144.2336  156.7643 C.3     1  UNL1        0.0482
     52 C         143.4562  143.0920  156.3283 C.3     1  UNL1        0.0921
     53 C         143.9278  142.0823  157.3323 C.3     1  UNL1        0.1815
     54 O         144.7975  140.9406  156.8963 O.3     1  UNL1       -0.3783
     55 H         145.0108  140.3856  157.6627 H       1  UNL1        0.2106
     56 N         143.8543  142.9600  154.8881 N.3     1  UNL1       -0.2692
     57 C         145.2151  143.4064  154.4422 C.3     1  UNL1        0.0897
     58 C         142.8915  142.3815  153.8938 C.3     1  UNL1        0.0897
@<TRIPOS>BOND
     1    31    32    1
     2     1    32    1
     3     1     2    1
     4     2     3    1
     5     3     4    2
     6     3     5    1
     7     5     6    1
     8     5     7    1
     9     7    33    1
    10    34    33    1
    11    34    35    1
    12    35    36    1
    13    36    37    1
    14    36    44    1
    15    44    45    1
    16    36    38    1
    17    38    39    1
    18    38    40    1
    19    40    41    1
    20    40    42    1
    21     7     8    1
    22     8     9    1
    23     8    10    1
    24    10    46    1
    25    47    46    1
    26    47    48    1
    27    48    49    1
    28    49    50    1
    29    49    51    1
    30    51    52    1
    31    52    56    1
    32    56    57    1
    33    56    58    1
    34    52    53    1
    35    53    54    1
    36    10    11    1
    37    11    12    1
    38    11    13    1
    39    11    14    1
    40    14    15    1
    41    15    16    1
    42    15    17    1
    43    17    18    1
    44    17    19    1
    45    19    20    1
    46    19    21    1
    47    21    22    1
    48    21    23    1
    49    23    24    1
    50    23    25    1
    51    23     1    1
    52    42    34    1
    53    53    47    1
    54    39    43    1
    55    54    55    1
    56    13    26    1
    57    18    27    1
    58    18    28    1
    59    22    29    1
    60    25    30    1
@<TRIPOS>MOLECULE
*****
 58 60 0 0 0
SMALL
GASTEIGER

@<TRIPOS>ATOM
      1 C         141.7945  142.4171  168.5238 C.3     1  UNL1        0.1953
      2 O         142.8502  142.7402  167.5083 O.3     1  UNL1       -0.4497
      3 C         143.5627  142.5716  166.1992 C.2     1  UNL1        0.3188
      4 O         144.6508  143.6012  166.2764 O.2     1  UNL1       -0.2500
      5 C         143.7910  141.9449  164.8556 C.3     1  UNL1        0.1263
      6 C         144.8380  142.7777  164.6752 C.3     1  UNL1        0.0142
      7 C         143.4898  140.9841  163.7438 C.3     1  UNL1        0.1306
      8 C         142.7187  139.8795  163.0839 C.3     1  UNL1        0.0575
      9 C         143.4313  139.7110  161.7748 C.3     1  UNL1        0.0051
     10 C         141.6306  138.8499  163.0067 C.3     1  UNL1        0.1444
     11 C         140.4409  138.0993  163.5273 C.3     1  UNL1        0.1134
     12 C         140.8408  137.6157  162.1649 C.3     1  UNL1        0.0318
     13 O         139.5433  136.9953  163.0525 O.3     1  UNL1       -0.3844
     14 C         139.3852  137.7762  164.5428 C.3     1  UNL1        0.0307
     15 C         138.6727  137.9448  165.8519 C.3     1  UNL1        0.0167
     16 C         137.5845  136.9152  165.7747 C.3     1  UNL1        0.0015
     17 C         138.4444  138.5715  167.1955 C.3     1  UNL1        0.0532
     18 N         137.2547  137.8208  167.7162 N.3     1  UNL1       -0.3221
     19 C         138.7456  139.5323  168.3073 C.3     1  UNL1        0.0436
     20 C         137.6899  139.2093  169.3228 C.3     1  UNL1        0.0039
     21 C         139.5167  140.6369  168.9672 C.3     1  UNL1        0.1395
     22 O         138.8041  140.8054  170.2764 O.3     1  UNL1       -0.3819
     23 C         140.6048  141.6664  169.0445 C.3     1  UNL1        0.1493
     24 C         139.7581  141.6700  170.2827 C.3     1  UNL1        0.0355
     25 O         141.0742  142.6986  170.0264 O.3     1  UNL1       -0.3808
     26 H         139.8265  136.7047  162.1715 H       1  UNL1        0.2103
     27 H         137.0090  138.1727  168.6415 H       1  UNL1        0.1188
     28 H         137.4798  136.8280  167.7787 H       1  UNL1        0.1188
     29 H         138.0692  140.1744  170.3281 H       1  UNL1        0.2104
     30 H         140.5086  142.6764  170.8141 H       1  UNL1        0.2105
     31 C         143.2468  143.1169  170.5612 C.3     1  UNL1        0.0039
     32 C         142.0957  143.3779  169.6357 C.3     1  UNL1        0.0462
     33 O         144.5455  141.3071  162.7283 O.3     1  UNL1       -0.3323
     34 C         144.1768  142.0321  161.4679 C.3     1  UNL1        0.2375
     35 C         142.9779  142.9332  161.4444 C.3     1  UNL1        0.0910
     36 C         142.6092  143.6582  160.1840 C.3     1  UNL1        0.1246
     37 C         141.8620  144.5522  159.2393 C.3     1  UNL1        0.0324
     38 C         143.4394  143.4820  158.9472 C.3     1  UNL1        0.1623
     39 O         143.0707  144.2070  157.6869 O.3     1  UNL1       -0.3796
     40 C         144.6383  142.5808  158.9708 C.3     1  UNL1        0.1468
     41 C         145.4685  142.4047  157.7339 C.3     1  UNL1        0.0348
     42 O         145.0070  141.8559  160.2311 O.3     1  UNL1       -0.3304
     43 H         142.2769  144.7424  157.8424 H       1  UNL1        0.2105
     44 O         141.5195  144.1449  161.0928 O.3     1  UNL1       -0.3532
     45 C         141.8621  144.7066  162.4407 C.3     1  UNL1        0.1740
     46 O         141.8589  138.2232  161.6632 O.3     1  UNL1       -0.3287
     47 C         140.9745  138.5849  160.5068 C.3     1  UNL1        0.2643
     48 O         139.6410  139.2256  160.7542 O.3     1  UNL1       -0.3311
     49 C         138.7567  139.5873  159.5978 C.3     1  UNL1        0.1194
     50 C         137.4231  140.2281  159.8452 C.3     1  UNL1        0.0322
     51 C         139.2058  139.3083  158.1942 C.3     1  UNL1        0.0482
     52 C         140.5394  138.6676  157.9468 C.3     1  UNL1        0.0921
     53 C         141.4237  138.3059  159.1030 C.3     1  UNL1        0.1815
     54 O         142.7573  137.6652  158.8557 O.3     1  UNL1       -0.3783
     55 H         143.1979  137.4980  159.7036 H       1  UNL1        0.2106
     56 N         140.9885  138.3886  156.5430 N.3     1  UNL1       -0.2692
     57 C         140.6808  137.0660  155.9060 C.3     1  UNL1        0.0897
     58 C         141.7453  139.4324  155.7763 C.3     1  UNL1        0.0897
@<TRIPOS>BOND
     1    31    32    1
     2     1    32    1
     3     1     2    1
     4     2     3    1
     5     3     4    2
     6     3     5    1
     7     5     6    1
     8     5     7    1
     9     7    33    1
    10    34    33    1
    11    34    35    1
    12    35    36    1
    13    36    37    1
    14    36    44    1
    15    44    45    1
    16    36    38    1
    17    38    39    1
    18    38    40    1
    19    40    41    1
    20    40    42    1
    21     7     8    1
    22     8     9    1
    23     8    10    1
    24    10    46    1
    25    47    46    1
    26    47    48    1
    27    48    49    1
    28    49    50    1
    29    49    51    1
    30    51    52    1
    31    52    56    1
    32    56    57    1
    33    56    58    1
    34    52    53    1
    35    53    54    1
    36    10    11    1
    37    11    12    1
    38    11    13    1
    39    11    14    1
    40    14    15    1
    41    15    16    1
    42    15    17    1
    43    17    18    1
    44    17    19    1
    45    19    20    1
    46    19    21    1
    47    21    22    1
    48    21    23    1
    49    23    24    1
    50    23    25    1
    51    23     1    1
    52    42    34    1
    53    53    47    1
    54    39    43    1
    55    54    55    1
    56    13    26    1
    57    18    27    1
    58    18    28    1
    59    22    29    1
    60    25    30    1
@<TRIPOS>MOLECULE
*****
 58 60 0 0 0
SMALL
GASTEIGER

@<TRIPOS>ATOM
      1 C         138.8574  138.6751  154.5144 C.3     1  UNL1        0.1953
      2 O         139.9010  138.0441  155.3878 O.3     1  UNL1       -0.4497
      3 C         140.9839  138.0590  156.4255 C.2     1  UNL1        0.3188
      4 O         141.3773  136.6144  156.5182 O.2     1  UNL1       -0.2500
      5 C         141.8919  138.7167  157.4221 C.3     1  UNL1        0.1263
      6 C         142.4250  137.5067  157.6943 C.3     1  UNL1        0.0142
      7 C         142.4449  139.8870  158.1801 C.3     1  UNL1        0.1306
      8 C         142.5334  141.3383  158.5493 C.3     1  UNL1        0.0575
      9 C         143.6164  141.3531  159.5871 C.3     1  UNL1        0.0051
     10 C         142.1401  142.7827  158.4567 C.3     1  UNL1        0.1444
     11 C         141.3426  143.9346  157.9206 C.3     1  UNL1        0.1134
     12 C         142.3314  144.3865  158.9540 C.3     1  UNL1        0.0318
     13 O         141.2677  145.4166  158.1396 O.3     1  UNL1       -0.3844
     14 C         140.2991  144.5655  157.0471 C.3     1  UNL1        0.0307
     15 C         139.2161  144.5507  156.0094 C.3     1  UNL1        0.0167
     16 C         138.8227  145.9952  155.9168 C.3     1  UNL1        0.0015
     17 C         138.3082  143.8930  155.0128 C.3     1  UNL1        0.0532
     18 N         137.5107  145.0448  154.4767 N.3     1  UNL1       -0.3221
     19 C         137.7552  142.7226  154.2549 C.3     1  UNL1        0.0436
     20 C         136.7116  143.3536  153.3814 C.3     1  UNL1        0.0039
     21 C         137.6666  141.2714  153.8857 C.3     1  UNL1        0.1395
     22 O         136.5836  141.2566  152.8479 O.3     1  UNL1       -0.3819
     23 C         138.0600  139.8269  153.9783 C.3     1  UNL1        0.1493
     24 C         136.9658  140.0335  152.9733 C.3     1  UNL1        0.0355
     25 O         137.6539  138.5334  153.3366 O.3     1  UNL1       -0.3808
     26 H         141.9170  145.6774  158.8113 H       1  UNL1        0.2103
     27 H         136.8496  144.7048  153.7783 H       1  UNL1        0.1188
     28 H         138.1398  145.7233  154.0475 H       1  UNL1        0.1188
     29 H         136.2549  142.1588  152.7107 H       1  UNL1        0.2104
     30 H         136.9469  138.6994  152.6935 H       1  UNL1        0.2105
     31 C         139.1658  136.7771  152.7673 C.3     1  UNL1        0.0039
     32 C         138.3044  137.5047  153.7564 C.3     1  UNL1        0.0462
     33 O         143.4884  139.2561  159.0535 O.3     1  UNL1       -0.3323
     34 C         143.1839  138.9613  160.4924 C.3     1  UNL1        0.2375
     35 C         141.8721  138.3390  160.8690 C.3     1  UNL1        0.0910
     36 C         141.5674  138.0442  162.3079 C.3     1  UNL1        0.1246
     37 C         140.8232  137.5796  163.5246 C.3     1  UNL1        0.0324
     38 C         142.5747  138.3718  163.3701 C.3     1  UNL1        0.1623
     39 O         142.2700  138.0770  164.8089 O.3     1  UNL1       -0.3796
     40 C         143.8864  138.9942  162.9934 C.3     1  UNL1        0.1468
     41 C         144.8936  139.3218  164.0557 C.3     1  UNL1        0.0348
     42 O         144.1910  139.2889  161.5546 O.3     1  UNL1       -0.3304
     43 H         141.3880  137.6791  164.8777 H       1  UNL1        0.2105
     44 O         140.3018  137.5553  161.6683 O.3     1  UNL1       -0.3532
     45 C         139.6198  138.3873  160.6231 C.3     1  UNL1        0.1740
     46 O         143.0479  143.4405  159.4532 O.3     1  UNL1       -0.3287
     47 C         142.5190  143.8440  160.7977 C.3     1  UNL1        0.2643
     48 O         141.0893  144.2736  160.9430 O.3     1  UNL1       -0.3311
     49 C         140.5605  144.6771  162.2875 C.3     1  UNL1        0.1194
     50 C         139.1306  145.1068  162.4329 C.3     1  UNL1        0.0322
     51 C         141.4613  144.6510  163.4865 C.3     1  UNL1        0.0482
     52 C         142.8911  144.2213  163.3411 C.3     1  UNL1        0.0921
     53 C         143.4200  143.8178  161.9967 C.3     1  UNL1        0.1815
     54 O         144.8498  143.3882  161.8513 O.3     1  UNL1       -0.3783
     55 H         145.0270  143.1627  160.9246 H       1  UNL1        0.2106
     56 N         143.7920  144.1952  164.5402 N.3     1  UNL1       -0.2692
     57 C         144.4046  145.4676  165.0458 C.3     1  UNL1        0.0897
     58 C         144.0802  142.8967  165.2336 C.3     1  UNL1        0.0897
@<TRIPOS>BOND
     1    31    32    1
     2     1    32    1
     3     1     2    1
     4     2     3    1
     5     3     4    2
     6     3     5    1
     7     5     6    1
     8     5     7    1
     9     7    33    1
    10    34    33    1
    11    34    35    1
    12    35    36    1
    13    36    37    1
    14    36    44    1
    15    44    45    1
    16    36    38    1
    17    38    39    1
    18    38    40    1
    19    40    41    1
    20    40    42    1
    21     7     8    1
    22     8     9    1
    23     8    10    1
    24    10    46    1
    25    47    46    1
    26    47    48    1
    27    48    49    1
    28    49    50    1
    29    49    51    1
    30    51    52    1
    31    52    56    1
    32    56    57    1
    33    56    58    1
    34    52    53    1
    35    53    54    1
    36    10    11    1
    37    11    12    1
    38    11    13    1
    39    11    14    1
    40    14    15    1
    41    15    16    1
    42    15    17    1
    43    17    18    1
    44    17    19    1
    45    19    20    1
    46    19    21    1
    47    21    22    1
    48    21    23    1
    49    23    24    1
    50    23    25    1
    51    23     1    1
    52    42    34    1
    53    53    47    1
    54    39    43    1
    55    54    55    1
    56    13    26    1
    57    18    27    1
    58    18    28    1
    59    22    29    1
    60    25    30    1
@<TRIPOS>MOLECULE
*****
 58 60 0 0 0
SMALL
GASTEIGER

@<TRIPOS>ATOM
      1 C         139.8441  143.8750  164.0828 C.3     1  UNL1        0.1953
      2 O         139.9219  144.8232  162.9231 O.3     1  UNL1       -0.4497
      3 C         140.3043  145.2254  161.5296 C.2     1  UNL1        0.3188
      4 O         139.7899  146.6312  161.4348 O.2     1  UNL1       -0.2500
      5 C         140.9157  145.0019  160.1781 C.3     1  UNL1        0.1263
      6 C         140.5554  146.2576  159.8375 C.3     1  UNL1        0.0142
      7 C         141.6349  144.1971  159.1365 C.3     1  UNL1        0.1306
      8 C         142.3196  142.9701  158.6110 C.3     1  UNL1        0.0575
      9 C         142.7020  143.3724  157.2175 C.3     1  UNL1        0.0051
     10 C         142.8339  141.5643  158.7057 C.3     1  UNL1        0.1444
     11 C         143.0763  140.2579  159.4018 C.3     1  UNL1        0.1134
     12 C         143.6230  140.2443  158.0051 C.3     1  UNL1        0.0318
     13 O         143.7181  138.9416  159.0774 O.3     1  UNL1       -0.3844
     14 C         142.9985  139.3097  160.5615 C.3     1  UNL1        0.0307
     15 C         142.6161  138.9076  161.9550 C.3     1  UNL1        0.0167
     16 C         143.1305  137.5017  162.0498 C.3     1  UNL1        0.0015
     17 C         142.0047  139.1310  163.3065 C.3     1  UNL1        0.0532
     18 N         142.2471  137.8246  164.0027 N.3     1  UNL1       -0.3221
     19 C         141.2855  139.9359  164.3481 C.3     1  UNL1        0.0436
     20 C         141.2077  138.9877  165.5078 C.3     1  UNL1        0.0039
     21 C         140.6009  141.1628  164.8736 C.3     1  UNL1        0.1395
     22 O         140.2184  140.7605  166.2672 O.3     1  UNL1       -0.3819
     23 C         140.0865  142.5686  164.7789 C.3     1  UNL1        0.1493
     24 C         139.8000  141.9697  166.1239 C.3     1  UNL1        0.0355
     25 O         139.3627  143.5368  165.6669 O.3     1  UNL1       -0.3808
     26 H         144.0609  138.9638  158.1703 H       1  UNL1        0.2103
     27 H         141.8645  137.8666  164.9473 H       1  UNL1        0.1188
     28 H         143.2501  137.6453  164.0497 H       1  UNL1        0.1188
     29 H         140.5109  139.8506  166.4328 H       1  UNL1        0.2104
     30 H         139.1922  143.1216  166.5268 H       1  UNL1        0.2105
     31 C         137.6254  144.7043  165.1501 C.3     1  UNL1        0.0039
     32 C         139.1249  144.6799  165.1244 C.3     1  UNL1        0.0462
     33 O         141.7127  145.1453  157.9768 O.3     1  UNL1       -0.3323
     34 C         140.5274  145.3265  157.0755 C.3     1  UNL1        0.2375
     35 C         139.5571  144.2000  156.8770 C.3     1  UNL1        0.0910
     36 C         138.3717  144.3812  155.9757 C.3     1  UNL1        0.1246
     37 C         137.1088  144.0708  155.2283 C.3     1  UNL1        0.0324
     38 C         138.1569  145.6890  155.2730 C.3     1  UNL1        0.1623
     39 O         136.9716  145.8701  154.3718 O.3     1  UNL1       -0.3796
     40 C         139.1273  146.8154  155.4716 C.3     1  UNL1        0.1468
     41 C         138.9123  148.1231  154.7689 C.3     1  UNL1        0.0348
     42 O         140.3125  146.6342  156.3728 O.3     1  UNL1       -0.3304
     43 H         136.4502  145.0523  154.3550 H       1  UNL1        0.2105
     44 O         138.1480  142.9657  156.4188 O.3     1  UNL1       -0.3532
     45 C         136.8317  142.2966  156.1554 C.3     1  UNL1        0.1740
     46 O         143.4453  141.3409  157.3544 O.3     1  UNL1       -0.3287
     47 C         143.0331  140.1566  156.5312 C.3     1  UNL1        0.2643
     48 O         143.9672  138.9941  156.3692 O.3     1  UNL1       -0.3311
     49 C         143.5549  137.8099  155.5460 C.3     1  UNL1        0.1194
     50 C         144.4890  136.6474  155.3840 C.3     1  UNL1        0.0322
     51 C         142.2087  137.7880  154.8850 C.3     1  UNL1        0.0482
     52 C         141.2746  138.9504  155.0470 C.3     1  UNL1        0.0921
     53 C         141.6867  140.1347  155.8701 C.3     1  UNL1        0.1815
     54 O         140.7527  141.2972  156.0322 O.3     1  UNL1       -0.3783
     55 H         141.1704  141.9723  156.5896 H       1  UNL1        0.2106
     56 N         139.9283  138.9285  154.3859 N.3     1  UNL1       -0.2692
     57 C         139.7805  139.3998  152.9696 C.3     1  UNL1        0.0897
     58 C         138.7298  138.4353  155.1412 C.3     1  UNL1        0.0897
@<TRIPOS>BOND
     1    31    32    1
     2     1    32    1
     3     1     2    1
     4     2     3    1
     5     3     4    2
     6     3     5    1
     7     5     6    1
     8     5     7    1
     9     7    33    1
    10    34    33    1
    11    34    35    1
    12    35    36    1
    13    36    37    1
    14    36    44    1
    15    44    45    1
    16    36    38    1
    17    38    39    1
    18    38    40    1
    19    40    41    1
    20    40    42    1
    21     7     8    1
    22     8     9    1
    23     8    10    1
    24    10    46    1
    25    47    46    1
    26    47    48    1
    27    48    49    1
    28    49    50    1
    29    49    51    1
    30    51    52    1
    31    52    56    1
    32    56    57    1
    33    56    58    1
    34    52    53    1
    35    53    54    1
    36    10    11    1
    37    11    12    1
    38    11    13    1
    39    11    14    1
    40    14    15    1
    41    15    16    1
    42    15    17    1
    43    17    18    1
    44    17    19    1
    45    19    20    1
    46    19    21    1
    47    21    22    1
    48    21    23    1
    49    23    24    1
    50    23    25    1
    51    23     1    1
    52    42    34    1
    53    53    47    1
    54    39    43    1
    55    54    55    1
    56    13    26    1
    57    18    27    1
    58    18    28    1
    59    22    29    1
    60    25    30    1
@<TRIPOS>MOLECULE
*****
 58 60 0 0 0
SMALL
GASTEIGER

@<TRIPOS>ATOM
      1 C         141.8550  139.2130  162.8946 C.3     1  UNL1        0.1953
      2 O         142.2839  138.6667  161.5651 O.3     1  UNL1       -0.4497
      3 C         142.5373  138.7475  160.0889 C.2     1  UNL1        0.3188
      4 O         143.0444  137.3743  159.7616 O.2     1  UNL1       -0.2500
      5 C         142.5649  139.4395  158.7582 C.3     1  UNL1        0.1263
      6 C         143.0382  138.3017  158.2069 C.3     1  UNL1        0.0142
      7 C         142.3614  140.6055  157.8368 C.3     1  UNL1        0.1306
      8 C         141.9670  142.0147  157.5071 C.3     1  UNL1        0.0575
      9 C         142.2204  142.0955  156.0309 C.3     1  UNL1        0.0051
     10 C         141.4598  143.3878  157.8344 C.3     1  UNL1        0.1444
     11 C         140.9403  144.4531  158.7538 C.3     1  UNL1        0.1134
     12 C         141.0462  144.9509  157.3428 C.3     1  UNL1        0.0318
     13 O         140.4982  145.8821  158.6423 O.3     1  UNL1       -0.3844
     14 C         140.5114  144.9994  160.0833 C.3     1  UNL1        0.0307
     15 C         140.2580  144.9186  161.5595 C.3     1  UNL1        0.0167
     16 C         139.7508  146.2918  161.8868 C.3     1  UNL1        0.0015
     17 C         140.2303  144.2267  162.8902 C.3     1  UNL1        0.0532
     18 N         139.7108  145.2920  163.8096 N.3     1  UNL1       -0.3221
     19 C         140.4339  143.0607  163.8116 C.3     1  UNL1        0.0436
     20 C         140.0049  143.6070  165.1411 C.3     1  UNL1        0.0039
     21 C         140.8283  141.6515  164.1413 C.3     1  UNL1        0.1395
     22 O         140.5749  141.5707  165.6175 O.3     1  UNL1       -0.3819
     23 C         141.3355  140.2783  163.8140 C.3     1  UNL1        0.1493
     24 C         141.0160  140.4111  165.2735 C.3     1  UNL1        0.0355
     25 O         141.6092  139.0022  164.5532 O.3     1  UNL1       -0.3808
     26 H         140.5780  146.1743  157.7208 H       1  UNL1        0.2103
     27 H         139.6509  144.9226  164.7585 H       1  UNL1        0.1188
     28 H         138.7845  145.5861  163.5001 H       1  UNL1        0.1188
     29 H         140.2384  142.4233  165.9349 H       1  UNL1        0.2104
     30 H         141.3935  139.1194  165.4916 H       1  UNL1        0.2105
     31 C         140.9664  137.0349  163.9974 C.3     1  UNL1        0.0039
     32 C         142.0585  138.0470  163.8160 C.3     1  UNL1        0.0462
     33 O         142.7903  140.0591  156.5073 O.3     1  UNL1       -0.3323
     34 C         144.0979  140.4848  155.9082 C.3     1  UNL1        0.2375
     35 C         145.0533  141.3195  156.7086 C.3     1  UNL1        0.0910
     36 C         146.3609  141.7452  156.1094 C.3     1  UNL1        0.1246
     37 C         147.7087  142.3908  155.9809 C.3     1  UNL1        0.0324
     38 C         146.7131  141.3362  154.7099 C.3     1  UNL1        0.1623
     39 O         148.0207  141.7619  154.1108 O.3     1  UNL1       -0.3796
     40 C         145.7578  140.5015  153.9095 C.3     1  UNL1        0.1468
     41 C         146.1101  140.0925  152.5100 C.3     1  UNL1        0.0348
     42 O         144.4502  140.0758  154.5086 O.3     1  UNL1       -0.3304
     43 H         148.5149  142.2914  154.7561 H       1  UNL1        0.2105
     44 O         146.4767  142.3784  157.4643 O.3     1  UNL1       -0.3532
     45 C         147.6885  143.1915  157.8110 C.3     1  UNL1        0.1740
     46 O         141.4875  144.0798  156.5039 O.3     1  UNL1       -0.3287
     47 C         140.2422  144.7191  155.9649 C.3     1  UNL1        0.2643
     48 O         140.1118  146.2134  155.9513 O.3     1  UNL1       -0.3311
     49 C         138.8665  146.8526  155.4124 C.3     1  UNL1        0.1194
     50 C         138.7361  148.3470  155.3988 C.3     1  UNL1        0.0322
     51 C         137.7516  145.9977  154.8871 C.3     1  UNL1        0.0482
     52 C         137.8819  144.5035  154.9007 C.3     1  UNL1        0.0921
     53 C         139.1272  143.8641  155.4396 C.3     1  UNL1        0.1815
     54 O         139.2576  142.3699  155.4532 O.3     1  UNL1       -0.3783
     55 H         140.1165  142.1237  155.8308 H       1  UNL1        0.2106
     56 N         136.7669  143.6486  154.3753 N.3     1  UNL1       -0.2692
     57 C         136.0315  142.7239  155.2995 C.3     1  UNL1        0.0897
     58 C         136.3873  143.7184  152.9258 C.3     1  UNL1        0.0897
@<TRIPOS>BOND
     1    31    32    1
     2     1    32    1
     3     1     2    1
     4     2     3    1
     5     3     4    2
     6     3     5    1
     7     5     6    1
     8     5     7    1
     9     7    33    1
    10    34    33    1
    11    34    35    1
    12    35    36    1
    13    36    37    1
    14    36    44    1
    15    44    45    1
    16    36    38    1
    17    38    39    1
    18    38    40    1
    19    40    41    1
    20    40    42    1
    21     7     8    1
    22     8     9    1
    23     8    10    1
    24    10    46    1
    25    47    46    1
    26    47    48    1
    27    48    49    1
    28    49    50    1
    29    49    51    1
    30    51    52    1
    31    52    56    1
    32    56    57    1
    33    56    58    1
    34    52    53    1
    35    53    54    1
    36    10    11    1
    37    11    12    1
    38    11    13    1
    39    11    14    1
    40    14    15    1
    41    15    16    1
    42    15    17    1
    43    17    18    1
    44    17    19    1
    45    19    20    1
    46    19    21    1
    47    21    22    1
    48    21    23    1
    49    23    24    1
    50    23    25    1
    51    23     1    1
    52    42    34    1
    53    53    47    1
    54    39    43    1
    55    54    55    1
    56    13    26    1
    57    18    27    1
    58    18    28    1
    59    22    29    1
    60    25    30    1
