@<TRIPOS>MOLECULE
*****
 28 31 0 0 0
SMALL
GASTEIGER

@<TRIPOS>ATOM
      1 N         138.2963  140.1689  157.5277 N.3     1  UNL1       -0.2711
      2 C         137.7897  140.3136  158.9321 C.3     1  UNL1        0.0939
      3 C         138.5262  139.6636  160.0658 C.3     1  UNL1        0.1123
      4 N         139.7692  138.8690  159.7950 N.am    1  UNL1       -0.2612
      5 C         140.5056  138.2190  160.9287 C.2     1  UNL1        0.3072
      6 O         141.7487  137.4244  160.6580 O.2     1  UNL1       -0.2523
      7 N         139.9990  138.3637  162.3331 N.am    1  UNL1       -0.2640
      8 C         140.7355  137.7137  163.4668 C.3     1  UNL1        0.0954
      9 C         140.2288  137.8584  164.8712 C.3     1  UNL1        0.0307
     10 C         138.9857  138.6530  165.1419 C.3     1  UNL1        0.0801
     11 C         138.2493  139.3030  164.0083 C.3     1  UNL1        0.0307
     12 C         138.7559  139.1583  162.6039 C.3     1  UNL1        0.0954
     13 C         140.2758  138.7243  158.3906 C.3     1  UNL1        0.1123
     14 C         139.5394  139.3743  157.2570 C.3     1  UNL1        0.0939
     15 C         138.4791  138.7977  166.5463 C.2     1  UNL1        0.2253
     16 O         137.3028  137.9886  167.0064 O.2     1  UNL1       -0.2749
     17 N         139.8801  141.0109  169.0555 N.am    1  UNL1       -0.2796
     18 C         140.7596  141.3568  168.0782 C.3     1  UNL1        0.0933
     19 C         140.9441  141.4313  167.8777 C.3     1  UNL1        0.0199
     20 C         139.8782  140.4135  167.5980 C.3     1  UNL1        0.0018
     21 C         138.9066  140.0300  168.6745 C.3     1  UNL1        0.0018
     22 C         139.0008  140.6641  170.0306 C.3     1  UNL1        0.0199
     23 C         140.0666  141.6819  170.3102 C.3     1  UNL1        0.0018
     24 C         141.0382  142.0654  169.2338 C.3     1  UNL1        0.0018
     25 C         139.9686  141.0444  168.9541 C.3     1  UNL1        0.0933
     26 C         138.3152  141.3237  155.2005 C.3     1  UNL1        0.0173
     27 C         137.5599  140.8189  156.3940 C.3     1  UNL1        0.0577
     28 C         136.0682  140.9640  156.4539 C.3     1  UNL1        0.0173
@<TRIPOS>BOND
     1    26    27    1
     2    27    28    1
     3    27     1    1
     4     1     2    1
     5     2     3    1
     6     3     4    1
     7     4     5   am
     8     5     6    2
     9     5     7   am
    10     7     8    1
    11     8     9    1
    12     9    10    1
    13    10    15    1
    14    15    16    2
    15    15    17   am
    16    17    18    1
    17    18    19    1
    18    19    20    1
    19    20    21    1
    20    21    22    1
    21    22    23    1
    22    23    24    1
    23    22    25    1
    24    10    11    1
    25    11    12    1
    26     4    13    1
    27    13    14    1
    28    14     1    1
    29    12     7    1
    30    25    17    1
    31    24    19    1
@<TRIPOS>MOLECULE
*****
 28 31 0 0 0
SMALL
GASTEIGER

@<TRIPOS>ATOM
      1 N         139.5159  138.5480  157.4734 N.3     1  UNL1       -0.2711
      2 C         139.5066  138.1061  158.9067 C.3     1  UNL1        0.0939
      3 C         139.1297  139.0751  159.9879 C.3     1  UNL1        0.1123
      4 N         138.7620  140.4860  159.6357 N.am    1  UNL1       -0.2612
      5 C         138.3851  141.4550  160.7169 C.2     1  UNL1        0.3072
      6 O         138.0175  142.8659  160.3647 O.2     1  UNL1       -0.2523
      7 N         138.3758  141.0131  162.1502 N.am    1  UNL1       -0.2640
      8 C         137.9989  141.9821  163.2314 C.3     1  UNL1        0.0954
      9 C         137.9896  141.5402  164.6648 C.3     1  UNL1        0.0307
     10 C         138.3572  140.1292  165.0170 C.3     1  UNL1        0.0801
     11 C         138.7342  139.1602  163.9359 C.3     1  UNL1        0.0307
     12 C         138.7435  139.6021  162.5025 C.3     1  UNL1        0.0954
     13 C         138.7713  140.9279  158.2023 C.3     1  UNL1        0.1123
     14 C         139.1483  139.9589  157.1212 C.3     1  UNL1        0.0939
     15 C         138.3480  139.6873  166.4504 C.2     1  UNL1        0.2253
     16 O         137.4505  138.5663  166.8838 O.2     1  UNL1       -0.2749
     17 N         140.3727  141.1262  169.0938 N.am    1  UNL1       -0.2796
     18 C         140.8455  141.9428  168.1151 C.3     1  UNL1        0.0933
     19 C         140.9462  142.1142  167.9145 C.3     1  UNL1        0.0199
     20 C         139.9153  141.0749  167.5874 C.3     1  UNL1        0.0018
     21 C         139.3918  140.1726  168.6652 C.3     1  UNL1        0.0018
     22 C         139.8992  140.3095  170.0701 C.3     1  UNL1        0.0199
     23 C         140.9301  141.3489  170.3972 C.3     1  UNL1        0.0018
     24 C         141.4536  142.2512  169.3194 C.3     1  UNL1        0.0018
     25 C         140.4192  141.2081  168.9921 C.3     1  UNL1        0.0933
     26 C         138.9178  137.2594  155.2981 C.3     1  UNL1        0.0173
     27 C         139.8928  137.5789  156.3922 C.3     1  UNL1        0.0577
     28 C         141.2448  136.9294  156.4051 C.3     1  UNL1        0.0173
@<TRIPOS>BOND
     1    26    27    1
     2    27    28    1
     3    27     1    1
     4     1     2    1
     5     2     3    1
     6     3     4    1
     7     4     5   am
     8     5     6    2
     9     5     7   am
    10     7     8    1
    11     8     9    1
    12     9    10    1
    13    10    15    1
    14    15    16    2
    15    15    17   am
    16    17    18    1
    17    18    19    1
    18    19    20    1
    19    20    21    1
    20    21    22    1
    21    22    23    1
    22    23    24    1
    23    22    25    1
    24    10    11    1
    25    11    12    1
    26     4    13    1
    27    13    14    1
    28    14     1    1
    29    12     7    1
    30    25    17    1
    31    24    19    1
@<TRIPOS>MOLECULE
*****
 28 31 0 0 0
SMALL
GASTEIGER

@<TRIPOS>ATOM
      1 N         143.0536  138.1776  157.6815 N.3     1  UNL1       -0.2711
      2 C         142.8881  137.6955  159.0922 C.3     1  UNL1        0.0939
      3 C         143.1561  138.6248  160.2387 C.3     1  UNL1        0.1123
      4 N         143.5896  140.0363  159.9745 N.am    1  UNL1       -0.2612
      5 C         143.8576  140.9656  161.1211 C.2     1  UNL1        0.3072
      6 O         144.2912  142.3770  160.8569 O.2     1  UNL1       -0.2523
      7 N         143.6921  140.4835  162.5318 N.am    1  UNL1       -0.2640
      8 C         143.9601  141.4128  163.6783 C.3     1  UNL1        0.0954
      9 C         143.7946  140.9306  165.0890 C.3     1  UNL1        0.0307
     10 C         143.3610  139.5192  165.3532 C.3     1  UNL1        0.0801
     11 C         143.0930  138.5899  164.2067 C.3     1  UNL1        0.0307
     12 C         143.2585  139.0720  162.7960 C.3     1  UNL1        0.0954
     13 C         143.7552  140.5184  158.5638 C.3     1  UNL1        0.1123
     14 C         143.4872  139.5891  157.4173 C.3     1  UNL1        0.0939
     15 C         143.1955  139.0370  166.7639 C.2     1  UNL1        0.2253
     16 O         144.0053  137.8758  167.2595 O.2     1  UNL1       -0.2749
     17 N         140.9276  140.4657  169.2078 N.am    1  UNL1       -0.2796
     18 C         140.5923  141.3245  168.2086 C.3     1  UNL1        0.0933
     19 C         140.5200  141.5047  168.0035 C.3     1  UNL1        0.0199
     20 C         141.5506  140.4421  167.7613 C.3     1  UNL1        0.0018
     21 C         141.9226  139.4933  168.8620 C.3     1  UNL1        0.0018
     22 C         141.2639  139.6071  170.2048 C.3     1  UNL1        0.0199
     23 C         140.2332  140.6696  170.4470 C.3     1  UNL1        0.0018
     24 C         139.8613  141.6184  169.3464 C.3     1  UNL1        0.0018
     25 C         140.8953  140.5520  169.1042 C.3     1  UNL1        0.0933
     26 C         141.4130  136.6764  156.3382 C.3     1  UNL1        0.0173
     27 C         142.7856  137.2483  156.5349 C.3     1  UNL1        0.0577
     28 C         143.8902  136.8910  155.5852 C.3     1  UNL1        0.0173
@<TRIPOS>BOND
     1    26    27    1
     2    27    28    1
     3    27     1    1
     4     1     2    1
     5     2     3    1
     6     3     4    1
     7     4     5   am
     8     5     6    2
     9     5     7   am
    10     7     8    1
    11     8     9    1
    12     9    10    1
    13    10    15    1
    14    15    16    2
    15    15    17   am
    16    17    18    1
    17    18    19    1
    18    19    20    1
    19    20    21    1
    20    21    22    1
    21    22    23    1
    22    23    24    1
    23    22    25    1
    24    10    11    1
    25    11    12    1
    26     4    13    1
    27    13    14    1
    28    14     1    1
    29    12     7    1
    30    25    17    1
    31    24    19    1
@<TRIPOS>MOLECULE
*****
 28 31 0 0 0
SMALL
GASTEIGER

@<TRIPOS>ATOM
      1 N         143.5208  140.0785  157.5962 N.3     1  UNL1       -0.2711
      2 C         144.0029  140.1370  159.0154 C.3     1  UNL1        0.0939
      3 C         143.1673  139.5535  160.1159 C.3     1  UNL1        0.1123
      4 N         141.8496  138.9115  159.7973 N.am    1  UNL1       -0.2612
      5 C         141.0140  138.3280  160.8979 C.2     1  UNL1        0.3072
      6 O         139.6964  137.6860  160.5793 O.2     1  UNL1       -0.2523
      7 N         141.4961  138.3865  162.3171 N.am    1  UNL1       -0.2640
      8 C         140.6605  137.8030  163.4177 C.3     1  UNL1        0.0954
      9 C         141.1426  137.8615  164.8370 C.3     1  UNL1        0.0307
     10 C         142.4603  138.5035  165.1556 C.3     1  UNL1        0.0801
     11 C         143.2959  139.0870  164.0550 C.3     1  UNL1        0.0307
     12 C         142.8138  139.0285  162.6358 C.3     1  UNL1        0.0954
     13 C         141.3676  138.8530  158.3782 C.3     1  UNL1        0.1123
     14 C         142.2032  139.4365  157.2776 C.3     1  UNL1        0.0939
     15 C         142.9423  138.5619  166.5748 C.2     1  UNL1        0.2253
     16 O         144.2779  137.9834  166.9377 O.2     1  UNL1       -0.2749
     17 N         141.1158  140.0305  169.3432 N.am    1  UNL1       -0.2796
     18 C         140.1662  140.3015  168.4087 C.3     1  UNL1        0.0933
     19 C         139.9667  140.3595  168.2174 C.3     1  UNL1        0.0199
     20 C         141.2305  139.6577  167.8171 C.3     1  UNL1        0.0018
     21 C         142.2799  139.3575  168.8460 C.3     1  UNL1        0.0018
     22 C         142.0654  139.7591  170.2752 C.3     1  UNL1        0.0199
     23 C         140.8016  140.4608  170.6756 C.3     1  UNL1        0.0018
     24 C         139.7523  140.7610  169.6467 C.3     1  UNL1        0.0018
     25 C         141.0206  140.0570  169.2459 C.3     1  UNL1        0.0933
     26 C         144.0112  140.3823  155.0630 C.3     1  UNL1        0.0173
     27 C         144.3564  140.6620  156.4956 C.3     1  UNL1        0.0577
     28 C         145.5373  141.5252  156.8276 C.3     1  UNL1        0.0173
@<TRIPOS>BOND
     1    26    27    1
     2    27    28    1
     3    27     1    1
     4     1     2    1
     5     2     3    1
     6     3     4    1
     7     4     5   am
     8     5     6    2
     9     5     7   am
    10     7     8    1
    11     8     9    1
    12     9    10    1
    13    10    15    1
    14    15    16    2
    15    15    17   am
    16    17    18    1
    17    18    19    1
    18    19    20    1
    19    20    21    1
    20    21    22    1
    21    22    23    1
    22    23    24    1
    23    22    25    1
    24    10    11    1
    25    11    12    1
    26     4    13    1
    27    13    14    1
    28    14     1    1
    29    12     7    1
    30    25    17    1
    31    24    19    1
@<TRIPOS>MOLECULE
*****
 28 31 0 0 0
SMALL
GASTEIGER

@<TRIPOS>ATOM
      1 N         139.4062  142.5524  159.5569 N.3     1  UNL1       -0.2711
      2 C         139.6396  142.7763  161.0216 C.3     1  UNL1        0.0939
      3 C         139.3520  141.6791  162.0032 C.3     1  UNL1        0.1123
      4 N         138.8309  140.3581  161.5201 N.am    1  UNL1       -0.2612
      5 C         138.5432  139.2610  162.5017 C.2     1  UNL1        0.3072
      6 O         138.0221  137.9400  162.0186 O.2     1  UNL1       -0.2523
      7 N         138.7767  139.4848  163.9664 N.am    1  UNL1       -0.2640
      8 C         138.4890  138.3877  164.9480 C.3     1  UNL1        0.0954
      9 C         138.7226  138.6115  166.4127 C.3     1  UNL1        0.0307
     10 C         139.2437  139.9325  166.8958 C.3     1  UNL1        0.0801
     11 C         139.5313  141.0296  165.9142 C.3     1  UNL1        0.0307
     12 C         139.2979  140.8058  164.4496 C.3     1  UNL1        0.0954
     13 C         138.5974  140.1343  160.0554 C.3     1  UNL1        0.1123
     14 C         138.8850  141.2315  159.0738 C.3     1  UNL1        0.0939
     15 C         139.4772  140.1563  168.3605 C.2     1  UNL1        0.2253
     16 O         138.4808  139.6558  169.3639 O.2     1  UNL1       -0.2749
     17 N         142.3430  141.8659  169.7823 N.am    1  UNL1       -0.2796
     18 C         142.7399  142.0094  168.4900 C.3     1  UNL1        0.0933
     19 C         142.8257  142.0411  168.2228 C.3     1  UNL1        0.0199
     20 C         141.5404  141.3340  168.5357 C.3     1  UNL1        0.0018
     21 C         141.1000  141.1742  169.9607 C.3     1  UNL1        0.0018
     22 C         141.9449  141.7216  171.0727 C.3     1  UNL1        0.0199
     23 C         143.2302  142.4288  170.7597 C.3     1  UNL1        0.0018
     24 C         143.6706  142.5885  169.3348 C.3     1  UNL1        0.0018
     25 C         142.3812  141.8792  169.6497 C.3     1  UNL1        0.0933
     26 C         139.2276  143.5264  157.1550 C.3     1  UNL1        0.0173
     27 C         139.6938  143.6496  158.5753 C.3     1  UNL1        0.0577
     28 C         140.4476  144.8699  159.0141 C.3     1  UNL1        0.0173
@<TRIPOS>BOND
     1    26    27    1
     2    27    28    1
     3    27     1    1
     4     1     2    1
     5     2     3    1
     6     3     4    1
     7     4     5   am
     8     5     6    2
     9     5     7   am
    10     7     8    1
    11     8     9    1
    12     9    10    1
    13    10    15    1
    14    15    16    2
    15    15    17   am
    16    17    18    1
    17    18    19    1
    18    19    20    1
    19    20    21    1
    20    21    22    1
    21    22    23    1
    22    23    24    1
    23    22    25    1
    24    10    11    1
    25    11    12    1
    26     4    13    1
    27    13    14    1
    28    14     1    1
    29    12     7    1
    30    25    17    1
    31    24    19    1
@<TRIPOS>MOLECULE
*****
 28 31 0 0 0
SMALL
GASTEIGER

@<TRIPOS>ATOM
      1 N         142.1774  143.8881  157.9099 N.3     1  UNL1       -0.2711
      2 C         142.1756  142.9314  159.0651 C.3     1  UNL1        0.0939
      3 C         141.4400  143.2785  160.3253 C.3     1  UNL1        0.1123
      4 N         140.7060  144.5824  160.4304 N.am    1  UNL1       -0.2612
      5 C         139.9703  144.9295  161.6907 C.2     1  UNL1        0.3072
      6 O         139.2364  146.2334  161.7958 O.2     1  UNL1       -0.2523
      7 N         139.9686  143.9727  162.8459 N.am    1  UNL1       -0.2640
      8 C         139.2329  144.3198  164.1062 C.3     1  UNL1        0.0954
      9 C         139.2312  143.3630  165.2614 C.3     1  UNL1        0.0307
     10 C         139.9652  142.0591  165.1563 C.3     1  UNL1        0.0801
     11 C         140.7009  141.7120  163.8960 C.3     1  UNL1        0.0307
     12 C         140.7026  142.6687  162.7408 C.3     1  UNL1        0.0954
     13 C         140.7077  145.5392  159.2752 C.3     1  UNL1        0.1123
     14 C         141.4434  145.1921  158.0150 C.3     1  UNL1        0.0939
     15 C         139.9634  141.1023  166.3115 C.2     1  UNL1        0.2253
     16 O         138.9186  140.0292  166.3950 O.2     1  UNL1       -0.2749
     17 N         142.3437  141.1266  169.0484 N.am    1  UNL1       -0.2796
     18 C         142.8895  142.1886  168.3983 C.3     1  UNL1        0.0933
     19 C         143.0056  142.4095  168.2661 C.3     1  UNL1        0.0199
     20 C         141.8002  141.7229  167.6956 C.3     1  UNL1        0.0018
     21 C         141.1960  140.5510  168.4108 C.3     1  UNL1        0.0018
     22 C         141.7973  140.0657  169.6965 C.3     1  UNL1        0.0199
     23 C         143.0027  140.7523  170.2670 C.3     1  UNL1        0.0018
     24 C         143.6069  141.9242  169.5518 C.3     1  UNL1        0.0018
     25 C         142.3974  141.2347  168.9801 C.3     1  UNL1        0.0933
     26 C         142.6083  144.2743  155.3771 C.3     1  UNL1        0.0173
     27 C         142.9131  143.5410  156.6496 C.3     1  UNL1        0.0577
     28 C         143.9535  142.4606  156.6619 C.3     1  UNL1        0.0173
@<TRIPOS>BOND
     1    26    27    1
     2    27    28    1
     3    27     1    1
     4     1     2    1
     5     2     3    1
     6     3     4    1
     7     4     5   am
     8     5     6    2
     9     5     7   am
    10     7     8    1
    11     8     9    1
    12     9    10    1
    13    10    15    1
    14    15    16    2
    15    15    17   am
    16    17    18    1
    17    18    19    1
    18    19    20    1
    19    20    21    1
    20    21    22    1
    21    22    23    1
    22    23    24    1
    23    22    25    1
    24    10    11    1
    25    11    12    1
    26     4    13    1
    27    13    14    1
    28    14     1    1
    29    12     7    1
    30    25    17    1
    31    24    19    1
@<TRIPOS>MOLECULE
*****
 28 31 0 0 0
SMALL
GASTEIGER

@<TRIPOS>ATOM
      1 N         141.8792  138.0634  157.9751 N.3     1  UNL1       -0.2711
      2 C         142.6048  138.2479  159.2748 C.3     1  UNL1        0.0939
      3 C         141.8310  138.4561  160.5428 C.3     1  UNL1        0.1123
      4 N         140.3316  138.4798  160.5111 N.am    1  UNL1       -0.2612
      5 C         139.5578  138.6880  161.7791 C.2     1  UNL1        0.3072
      6 O         138.0583  138.7117  161.7474 O.2     1  UNL1       -0.2523
      7 N         140.2834  138.8725  163.0789 N.am    1  UNL1       -0.2640
      8 C         139.5096  139.0807  164.3469 C.3     1  UNL1        0.0954
      9 C         140.2353  139.2652  165.6467 C.3     1  UNL1        0.0307
     10 C         141.7348  139.2415  165.6784 C.3     1  UNL1        0.0801
     11 C         142.5086  139.0333  164.4104 C.3     1  UNL1        0.0307
     12 C         141.7829  138.8488  163.1106 C.3     1  UNL1        0.0954
     13 C         139.6059  138.2953  159.2114 C.3     1  UNL1        0.1123
     14 C         140.3797  138.0871  157.9434 C.3     1  UNL1        0.0939
     15 C         142.4604  139.4260  166.9781 C.2     1  UNL1        0.2253
     16 O         143.5131  138.4423  167.3956 O.2     1  UNL1       -0.2749
     17 N         141.8967  142.1386  169.3193 N.am    1  UNL1       -0.2796
     18 C         140.9668  142.5547  168.4191 C.3     1  UNL1        0.0933
     19 C         140.7727  142.6442  168.2345 C.3     1  UNL1        0.0199
     20 C         141.5693  141.4019  167.9661 C.3     1  UNL1        0.0018
     21 C         142.5960  140.9406  168.9575 C.3     1  UNL1        0.0018
     22 C         142.8261  141.7215  170.2173 C.3     1  UNL1        0.0199
     23 C         142.0295  142.9638  170.4857 C.3     1  UNL1        0.0018
     24 C         141.0028  143.4252  169.4943 C.3     1  UNL1        0.0018
     25 C         141.8025  142.1788  169.2258 C.3     1  UNL1        0.0933
     26 C         142.8200  138.9862  155.7360 C.3     1  UNL1        0.0173
     27 C         142.6530  137.8552  156.7071 C.3     1  UNL1        0.0577
     28 C         143.2598  136.5160  156.4101 C.3     1  UNL1        0.0173
@<TRIPOS>BOND
     1    26    27    1
     2    27    28    1
     3    27     1    1
     4     1     2    1
     5     2     3    1
     6     3     4    1
     7     4     5   am
     8     5     6    2
     9     5     7   am
    10     7     8    1
    11     8     9    1
    12     9    10    1
    13    10    15    1
    14    15    16    2
    15    15    17   am
    16    17    18    1
    17    18    19    1
    18    19    20    1
    19    20    21    1
    20    21    22    1
    21    22    23    1
    22    23    24    1
    23    22    25    1
    24    10    11    1
    25    11    12    1
    26     4    13    1
    27    13    14    1
    28    14     1    1
    29    12     7    1
    30    25    17    1
    31    24    19    1
@<TRIPOS>MOLECULE
*****
 28 31 0 0 0
SMALL
GASTEIGER

@<TRIPOS>ATOM
      1 N         140.3300  138.4120  157.9393 N.3     1  UNL1       -0.2711
      2 C         139.7110  138.8131  159.2453 C.3     1  UNL1        0.0939
      3 C         140.5179  138.7508  160.5083 C.3     1  UNL1        0.1123
      4 N         141.9438  138.2873  160.4652 N.am    1  UNL1       -0.2612
      5 C         142.7507  138.2250  161.7281 C.2     1  UNL1        0.3072
      6 O         144.1766  137.7615  161.6850 O.2     1  UNL1       -0.2523
      7 N         142.1316  138.6262  163.0342 N.am    1  UNL1       -0.2640
      8 C         142.9385  138.5639  164.2971 C.3     1  UNL1        0.0954
      9 C         142.3194  138.9650  165.6033 C.3     1  UNL1        0.0307
     10 C         140.8935  139.4285  165.6463 C.3     1  UNL1        0.0801
     11 C         140.0866  139.4908  164.3834 C.3     1  UNL1        0.0307
     12 C         140.7056  139.0897  163.0773 C.3     1  UNL1        0.0954
     13 C         142.5628  137.8862  159.1591 C.3     1  UNL1        0.1123
     14 C         141.7559  137.9485  157.8962 C.3     1  UNL1        0.0939
     15 C         140.2745  139.8297  166.9524 C.2     1  UNL1        0.2253
     16 O         138.8855  139.3779  167.2942 O.2     1  UNL1       -0.2749
     17 N         141.8757  141.8774  169.4822 N.am    1  UNL1       -0.2796
     18 C         142.9250  141.9023  168.6181 C.3     1  UNL1        0.0933
     19 C         143.1451  141.9098  168.4412 C.3     1  UNL1        0.0199
     20 C         141.8987  141.1566  168.0819 C.3     1  UNL1        0.0018
     21 C         140.7395  141.1274  169.0333 C.3     1  UNL1        0.0018
     22 C         140.8266  141.8514  170.3441 C.3     1  UNL1        0.0199
     23 C         142.0729  142.6047  170.7034 C.3     1  UNL1        0.0018
     24 C         143.2322  142.6339  169.7520 C.3     1  UNL1        0.0018
     25 C         141.9813  141.8784  169.3923 C.3     1  UNL1        0.0933
     26 C         139.3516  137.2447  155.8345 C.3     1  UNL1        0.0173
     27 C         139.5232  138.4743  156.6763 C.3     1  UNL1        0.0577
     28 C         138.8878  139.7662  156.2552 C.3     1  UNL1        0.0173
@<TRIPOS>BOND
     1    26    27    1
     2    27    28    1
     3    27     1    1
     4     1     2    1
     5     2     3    1
     6     3     4    1
     7     4     5   am
     8     5     6    2
     9     5     7   am
    10     7     8    1
    11     8     9    1
    12     9    10    1
    13    10    15    1
    14    15    16    2
    15    15    17   am
    16    17    18    1
    17    18    19    1
    18    19    20    1
    19    20    21    1
    20    21    22    1
    21    22    23    1
    22    23    24    1
    23    22    25    1
    24    10    11    1
    25    11    12    1
    26     4    13    1
    27    13    14    1
    28    14     1    1
    29    12     7    1
    30    25    17    1
    31    24    19    1
@<TRIPOS>MOLECULE
*****
 28 31 0 0 0
SMALL
GASTEIGER

@<TRIPOS>ATOM
      1 N         140.9279  142.6922  158.3050 N.3     1  UNL1       -0.2711
      2 C         141.4994  142.6564  159.6914 C.3     1  UNL1        0.0939
      3 C         141.2662  141.4619  160.5682 C.3     1  UNL1        0.1123
      4 N         140.4615  140.3031  160.0586 N.am    1  UNL1       -0.2612
      5 C         140.2283  139.1086  160.9353 C.2     1  UNL1        0.3072
      6 O         139.4237  137.9498  160.4257 O.2     1  UNL1       -0.2523
      7 N         140.7998  139.0728  162.3217 N.am    1  UNL1       -0.2640
      8 C         140.5666  137.8783  163.1985 C.3     1  UNL1        0.0954
      9 C         141.1382  137.8426  164.5849 C.3     1  UNL1        0.0307
     10 C         141.9428  139.0013  165.0945 C.3     1  UNL1        0.0801
     11 C         142.1760  140.1958  164.2178 C.3     1  UNL1        0.0307
     12 C         141.6046  140.2316  162.8314 C.3     1  UNL1        0.0954
     13 C         139.8901  140.3389  158.6722 C.3     1  UNL1        0.1123
     14 C         140.1233  141.5334  157.7954 C.3     1  UNL1        0.0939
     15 C         142.5143  138.9655  166.4809 C.2     1  UNL1        0.2253
     16 O         143.9047  138.4497  166.7059 O.2     1  UNL1       -0.2749
     17 N         140.7891  140.0524  169.4809 N.am    1  UNL1       -0.2796
     18 C         139.7640  140.3402  168.6355 C.3     1  UNL1        0.0933
     19 C         139.5489  140.4012  168.4631 C.3     1  UNL1        0.0199
     20 C         140.8244  139.8262  167.9224 C.3     1  UNL1        0.0018
     21 C         141.9571  139.5077  168.8528 C.3     1  UNL1        0.0018
     22 C         141.8142  139.7643  170.3238 C.3     1  UNL1        0.0199
     23 C         140.5387  140.3393  170.8644 C.3     1  UNL1        0.0018
     24 C         139.4060  140.6578  169.9340 C.3     1  UNL1        0.0018
     25 C         140.6862  140.0808  169.3925 C.3     1  UNL1        0.0933
     26 C         140.2641  144.1413  156.2534 C.3     1  UNL1        0.0173
     27 C         141.1611  143.8867  157.4282 C.3     1  UNL1        0.0577
     28 C         142.2914  144.8267  157.7264 C.3     1  UNL1        0.0173
@<TRIPOS>BOND
     1    26    27    1
     2    27    28    1
     3    27     1    1
     4     1     2    1
     5     2     3    1
     6     3     4    1
     7     4     5   am
     8     5     6    2
     9     5     7   am
    10     7     8    1
    11     8     9    1
    12     9    10    1
    13    10    15    1
    14    15    16    2
    15    15    17   am
    16    17    18    1
    17    18    19    1
    18    19    20    1
    19    20    21    1
    20    21    22    1
    21    22    23    1
    22    23    24    1
    23    22    25    1
    24    10    11    1
    25    11    12    1
    26     4    13    1
    27    13    14    1
    28    14     1    1
    29    12     7    1
    30    25    17    1
    31    24    19    1
