@<TRIPOS>MOLECULE
*****
 22 24 0 0 0
SMALL
GASTEIGER

@<TRIPOS>ATOM
      1 N         140.6395  141.1191  166.6021 N.ar    1  UNL1       -0.2970
      2 C         141.7460  140.1968  166.1840 C.ar    1  UNL1        0.2012
      3 N         142.8850  140.3744  167.1438 N.ar    1  UNL1       -0.2136
      4 C         142.4823  141.4065  168.1551 C.ar    1  UNL1        0.0999
      5 C         143.2001  141.9866  169.3375 C.ar    1  UNL1        0.0207
      6 C         142.5301  143.0270  170.1852 C.ar    1  UNL1        0.0016
      7 C         141.1423  143.4873  169.8504 C.ar    1  UNL1        0.0016
      8 C         140.4245  142.9072  168.6680 C.ar    1  UNL1        0.0188
      9 C         141.0945  141.8668  167.8203 C.ar    1  UNL1        0.0799
     10 N         141.7184  139.2612  165.0119 N.pl3   1  UNL1       -0.2781
     11 C         141.0154  137.9373  164.9569 C.3     1  UNL1        0.0950
     12 C         141.2515  137.3430  163.6000 C.3     1  UNL1        0.0392
     13 C         142.1005  138.2997  162.8164 C.3     1  UNL1        0.0792
     14 C         142.3890  139.4851  163.6890 C.3     1  UNL1        0.1095
     15 N         142.5772  138.1051  161.4075 N.3     1  UNL1       -0.2699
     16 C         141.6268  138.2902  160.2618 C.3     1  UNL1        0.0897
     17 C         144.0043  137.7254  161.1444 C.3     1  UNL1        0.0897
     18 C         139.3110  141.2678  165.9215 C.3     1  UNL1        0.1407
     19 C         139.2279  141.9195  164.5731 C.3     1  UNL1        0.1666
     20 O         140.1995  143.0000  164.2010 O.3     1  UNL1       -0.3517
     21 C         138.6673  144.8012  165.2771 C.3     1  UNL1        0.0346
     22 C         139.9921  144.3994  164.6996 C.3     1  UNL1        0.1423
@<TRIPOS>BOND
     1    21    22    1
     2    22    20    1
     3    20    19    1
     4    19    18    1
     5    18     1    1
     6     1     2   ar
     7     2    10    1
     8    10    11    1
     9    11    12    1
    10    12    13    1
    11    13    15    1
    12    15    16    1
    13    15    17    1
    14    13    14    1
    15     2     3   ar
    16     3     4   ar
    17     4     5   ar
    18     5     6   ar
    19     6     7   ar
    20     7     8   ar
    21     8     9   ar
    22     9     1   ar
    23    14    10    1
    24     9     4   ar
@<TRIPOS>MOLECULE
*****
 22 24 0 0 0
SMALL
GASTEIGER

@<TRIPOS>ATOM
      1 N         141.7650  140.0601  166.8653 N.ar    1  UNL1       -0.2970
      2 C         140.4558  140.3031  166.1748 C.ar    1  UNL1        0.2012
      3 N         139.7866  141.4657  166.8460 N.ar    1  UNL1       -0.2136
      4 C         140.6823  141.9412  167.9513 C.ar    1  UNL1        0.0999
      5 C         140.5425  143.0531  168.9484 C.ar    1  UNL1        0.0207
      6 C         141.6254  143.2961  169.9575 C.ar    1  UNL1        0.0016
      7 C         142.8481  142.4273  169.9694 C.ar    1  UNL1        0.0016
      8 C         142.9879  141.3155  168.9723 C.ar    1  UNL1        0.0188
      9 C         141.9050  141.0725  167.9632 C.ar    1  UNL1        0.0799
     10 N         139.9113  139.5208  165.0166 N.pl3   1  UNL1       -0.2781
     11 C         139.4483  138.0946  165.0556 C.3     1  UNL1        0.0950
     12 C         138.9851  137.7198  163.6790 C.3     1  UNL1        0.0392
     13 C         139.1617  138.9144  162.7892 C.3     1  UNL1        0.0792
     14 C         139.7341  140.0275  163.6159 C.3     1  UNL1        0.1095
     15 N         138.8250  138.9837  161.3292 N.3     1  UNL1       -0.2699
     16 C         139.7603  138.3950  160.3150 C.3     1  UNL1        0.0897
     17 C         137.5529  139.6418  160.8833 C.3     1  UNL1        0.0897
     18 C         142.7597  138.9921  166.5188 C.3     1  UNL1        0.1407
     19 C         143.4952  139.0475  165.2127 C.3     1  UNL1        0.1666
     20 O         143.9428  140.3679  164.6594 O.3     1  UNL1       -0.3517
     21 C         145.6991  141.7760  163.3622 C.3     1  UNL1        0.0346
     22 C         145.3075  140.5027  164.0515 C.3     1  UNL1        0.1423
@<TRIPOS>BOND
     1    21    22    1
     2    22    20    1
     3    20    19    1
     4    19    18    1
     5    18     1    1
     6     1     2   ar
     7     2    10    1
     8    10    11    1
     9    11    12    1
    10    12    13    1
    11    13    15    1
    12    15    16    1
    13    15    17    1
    14    13    14    1
    15     2     3   ar
    16     3     4   ar
    17     4     5   ar
    18     5     6   ar
    19     6     7   ar
    20     7     8   ar
    21     8     9   ar
    22     9     1   ar
    23    14    10    1
    24     9     4   ar
@<TRIPOS>MOLECULE
*****
 22 24 0 0 0
SMALL
GASTEIGER

@<TRIPOS>ATOM
      1 N         141.3731  141.5688  166.4693 N.ar    1  UNL1       -0.2970
      2 C         140.1605  140.7112  166.2590 C.ar    1  UNL1        0.2012
      3 N         139.9173  139.9354  167.5195 N.ar    1  UNL1       -0.2136
      4 C         140.9794  140.3134  168.5089 C.ar    1  UNL1        0.0999
      5 C         141.2435  139.8688  169.9169 C.ar    1  UNL1        0.0207
      6 C         142.4074  140.4338  170.6759 C.ar    1  UNL1        0.0016
      7 C         143.3072  141.4433  170.0268 C.ar    1  UNL1        0.0016
      8 C         143.0431  141.8879  168.6188 C.ar    1  UNL1        0.0188
      9 C         141.8792  141.3230  167.8598 C.ar    1  UNL1        0.0799
     10 N         139.3361  140.6417  165.0078 N.pl3   1  UNL1       -0.2781
     11 C         138.1350  141.4843  164.6954 C.3     1  UNL1        0.0950
     12 C         137.6245  141.0807  163.3439 C.3     1  UNL1        0.0392
     13 C         138.5101  139.9888  162.8210 C.3     1  UNL1        0.0792
     14 C         139.5678  139.7175  163.8494 C.3     1  UNL1        0.1095
     15 N         138.3636  139.2907  161.5015 N.3     1  UNL1       -0.2699
     16 C         137.4166  139.8281  160.4697 C.3     1  UNL1        0.0897
     17 C         139.1641  138.0553  161.2137 C.3     1  UNL1        0.0897
     18 C         141.9741  142.5075  165.4655 C.3     1  UNL1        0.1407
     19 C         143.0481  142.0247  164.5363 C.3     1  UNL1        0.1666
     20 O         144.0200  140.9774  164.9930 O.3     1  UNL1       -0.3517
     21 C         143.4945  138.6241  165.9603 C.3     1  UNL1        0.0346
     22 C         143.7121  139.5248  164.7807 C.3     1  UNL1        0.1423
@<TRIPOS>BOND
     1    21    22    1
     2    22    20    1
     3    20    19    1
     4    19    18    1
     5    18     1    1
     6     1     2   ar
     7     2    10    1
     8    10    11    1
     9    11    12    1
    10    12    13    1
    11    13    15    1
    12    15    16    1
    13    15    17    1
    14    13    14    1
    15     2     3   ar
    16     3     4   ar
    17     4     5   ar
    18     5     6   ar
    19     6     7   ar
    20     7     8   ar
    21     8     9   ar
    22     9     1   ar
    23    14    10    1
    24     9     4   ar
@<TRIPOS>MOLECULE
*****
 22 24 0 0 0
SMALL
GASTEIGER

@<TRIPOS>ATOM
      1 N         140.6304  141.3529  166.1066 N.ar    1  UNL1       -0.2970
      2 C         139.8962  140.0747  165.8289 C.ar    1  UNL1        0.2012
      3 N         139.2743  139.6092  167.1121 N.ar    1  UNL1       -0.2136
      4 C         139.6241  140.5997  168.1828 C.ar    1  UNL1        0.0999
      5 C         139.2878  140.6596  169.6434 C.ar    1  UNL1        0.0207
      6 C         139.7896  141.7971  170.4825 C.ar    1  UNL1        0.0016
      7 C         140.6277  142.8748  169.8611 C.ar    1  UNL1        0.0016
      8 C         140.9641  142.8149  168.4005 C.ar    1  UNL1        0.0188
      9 C         140.4623  141.6774  167.5614 C.ar    1  UNL1        0.0799
     10 N         139.8007  139.3833  164.5011 N.pl3   1  UNL1       -0.2781
     11 C         140.3364  138.0204  164.1761 C.3     1  UNL1        0.0950
     12 C         140.0195  137.7283  162.7394 C.3     1  UNL1        0.0392
     13 C         139.2880  138.9106  162.1764 C.3     1  UNL1        0.0792
     14 C         139.1527  139.9334  163.2652 C.3     1  UNL1        0.1095
     15 N         138.7807  139.0463  160.7713 N.3     1  UNL1       -0.2699
     16 C         139.5967  138.5249  159.6257 C.3     1  UNL1        0.0897
     17 C         137.4574  139.7032  160.5119 C.3     1  UNL1        0.0897
     18 C         141.3980  142.1642  165.1053 C.3     1  UNL1        0.1407
     19 C         140.6780  143.1321  164.2140 C.3     1  UNL1        0.1666
     20 O         140.2931  144.4859  164.7329 O.3     1  UNL1       -0.3517
     21 C         137.7667  143.8942  164.6007 C.3     1  UNL1        0.0346
     22 C         138.8719  144.7626  165.1248 C.3     1  UNL1        0.1423
@<TRIPOS>BOND
     1    21    22    1
     2    22    20    1
     3    20    19    1
     4    19    18    1
     5    18     1    1
     6     1     2   ar
     7     2    10    1
     8    10    11    1
     9    11    12    1
    10    12    13    1
    11    13    15    1
    12    15    16    1
    13    15    17    1
    14    13    14    1
    15     2     3   ar
    16     3     4   ar
    17     4     5   ar
    18     5     6   ar
    19     6     7   ar
    20     7     8   ar
    21     8     9   ar
    22     9     1   ar
    23    14    10    1
    24     9     4   ar
@<TRIPOS>MOLECULE
*****
 22 24 0 0 0
SMALL
GASTEIGER

@<TRIPOS>ATOM
      1 N         142.3739  140.9162  166.0523 N.ar    1  UNL1       -0.2970
      2 C         142.8143  142.3394  165.8775 C.ar    1  UNL1        0.2012
      3 N         143.2448  142.8591  167.2171 N.ar    1  UNL1       -0.2136
      4 C         143.0704  141.7572  168.2198 C.ar    1  UNL1        0.0999
      5 C         143.3323  141.6921  169.6953 C.ar    1  UNL1        0.0207
      6 C         143.0558  140.4261  170.4509 C.ar    1  UNL1        0.0016
      7 C         142.5175  139.2253  169.7310 C.ar    1  UNL1        0.0016
      8 C         142.2557  139.2904  168.2555 C.ar    1  UNL1        0.0188
      9 C         142.5322  140.5563  167.4999 C.ar    1  UNL1        0.0799
     10 N         142.8227  143.1078  164.5894 N.pl3   1  UNL1       -0.2781
     11 C         144.0393  143.4984  163.8036 C.3     1  UNL1        0.0950
     12 C         143.5845  144.2526  162.5894 C.3     1  UNL1        0.0392
     13 C         142.0869  144.3282  162.6247 C.3     1  UNL1        0.0792
     14 C         141.6161  143.6207  163.8607 C.3     1  UNL1        0.1095
     15 N         141.2134  144.9944  161.6033 N.3     1  UNL1       -0.2699
     16 C         141.4294  144.7277  160.1431 C.3     1  UNL1        0.0897
     17 C         140.1238  145.9272  162.0421 C.3     1  UNL1        0.0897
     18 C         141.8645  140.0116  164.9696 C.3     1  UNL1        0.1407
     19 C         140.4668  140.1758  164.4507 C.3     1  UNL1        0.1666
     20 O         139.3076  140.1679  165.4027 O.3     1  UNL1       -0.3517
     21 C         137.8039  138.6310  166.8611 C.3     1  UNL1        0.0346
     22 C         138.4665  138.9347  165.5501 C.3     1  UNL1        0.1423
@<TRIPOS>BOND
     1    21    22    1
     2    22    20    1
     3    20    19    1
     4    19    18    1
     5    18     1    1
     6     1     2   ar
     7     2    10    1
     8    10    11    1
     9    11    12    1
    10    12    13    1
    11    13    15    1
    12    15    16    1
    13    15    17    1
    14    13    14    1
    15     2     3   ar
    16     3     4   ar
    17     4     5   ar
    18     5     6   ar
    19     6     7   ar
    20     7     8   ar
    21     8     9   ar
    22     9     1   ar
    23    14    10    1
    24     9     4   ar
@<TRIPOS>MOLECULE
*****
 22 24 0 0 0
SMALL
GASTEIGER

@<TRIPOS>ATOM
      1 N         140.2933  141.3753  166.1991 N.ar    1  UNL1       -0.2970
      2 C         139.5614  140.0741  166.0533 C.ar    1  UNL1        0.2012
      3 N         139.1241  139.6329  167.4187 N.ar    1  UNL1       -0.2136
      4 C         139.5856  140.6614  168.4082 C.ar    1  UNL1        0.0999
      5 C         139.4413  140.7565  169.8981 C.ar    1  UNL1        0.0207
      6 C         140.0195  141.9285  170.6343 C.ar    1  UNL1        0.0016
      7 C         140.7422  143.0053  169.8806 C.ar    1  UNL1        0.0016
      8 C         140.8865  142.9102  168.3906 C.ar    1  UNL1        0.0188
      9 C         140.3083  141.7383  167.6544 C.ar    1  UNL1        0.0799
     10 N         139.3109  139.3425  164.7680 N.pl3   1  UNL1       -0.2781
     11 C         139.2484  137.8534  164.5988 C.3     1  UNL1        0.0950
     12 C         138.9777  137.5622  163.1524 C.3     1  UNL1        0.0392
     13 C         138.8729  138.8713  162.4277 C.3     1  UNL1        0.0792
     14 C         139.0788  139.9716  163.4262 C.3     1  UNL1        0.1095
     15 N         138.6087  139.0490  160.9619 N.3     1  UNL1       -0.2699
     16 C         139.5548  138.4679  159.9534 C.3     1  UNL1        0.0897
     17 C         137.3982  139.8077  160.5047 C.3     1  UNL1        0.0897
     18 C         140.9031  142.1734  165.0850 C.3     1  UNL1        0.1407
     19 C         142.3201  141.9155  164.6661 C.3     1  UNL1        0.1666
     20 O         143.2572  141.1980  165.5918 O.3     1  UNL1       -0.3517
     21 C         143.0018  138.9152  166.8057 C.3     1  UNL1        0.0346
     22 C         143.3317  139.7000  165.5707 C.3     1  UNL1        0.1423
@<TRIPOS>BOND
     1    21    22    1
     2    22    20    1
     3    20    19    1
     4    19    18    1
     5    18     1    1
     6     1     2   ar
     7     2    10    1
     8    10    11    1
     9    11    12    1
    10    12    13    1
    11    13    15    1
    12    15    16    1
    13    15    17    1
    14    13    14    1
    15     2     3   ar
    16     3     4   ar
    17     4     5   ar
    18     5     6   ar
    19     6     7   ar
    20     7     8   ar
    21     8     9   ar
    22     9     1   ar
    23    14    10    1
    24     9     4   ar
@<TRIPOS>MOLECULE
*****
 22 24 0 0 0
SMALL
GASTEIGER

@<TRIPOS>ATOM
      1 N         140.2319  140.2435  166.2989 N.ar    1  UNL1       -0.2970
      2 C         140.9307  141.2457  165.4287 C.ar    1  UNL1        0.2012
      3 N         141.1751  142.4791  166.2465 N.ar    1  UNL1       -0.2136
      4 C         140.6273  142.2393  167.6221 C.ar    1  UNL1        0.0999
      5 C         140.5839  143.1006  168.8494 C.ar    1  UNL1        0.0207
      6 C         139.9576  142.5802  170.1091 C.ar    1  UNL1        0.0016
      7 C         139.3747  141.1984  170.1415 C.ar    1  UNL1        0.0016
      8 C         139.4181  140.3372  168.9142 C.ar    1  UNL1        0.0188
      9 C         140.0443  140.8576  167.6545 C.ar    1  UNL1        0.0799
     10 N         141.3174  141.0489  163.9928 N.pl3   1  UNL1       -0.2781
     11 C         140.7482  141.7867  162.8174 C.3     1  UNL1        0.0950
     12 C         141.4201  141.2736  161.5783 C.3     1  UNL1        0.0392
     13 C         142.4046  140.2186  161.9880 C.3     1  UNL1        0.0792
     14 C         142.3411  140.0797  163.4802 C.3     1  UNL1        0.1095
     15 N         143.2960  139.4392  161.0671 N.3     1  UNL1       -0.2699
     16 C         143.6307  139.9825  159.7096 C.3     1  UNL1        0.0897
     17 C         143.8527  138.1166  161.5038 C.3     1  UNL1        0.0897
     18 C         139.7970  138.8686  165.8860 C.3     1  UNL1        0.1407
     19 C         138.5411  138.6878  165.0862 C.3     1  UNL1        0.1666
     20 O         138.5602  138.9005  163.6015 O.3     1  UNL1       -0.3517
     21 C         139.4201  138.1267  161.2751 C.3     1  UNL1        0.0346
     22 C         139.0498  137.8110  162.6940 C.3     1  UNL1        0.1423
@<TRIPOS>BOND
     1    21    22    1
     2    22    20    1
     3    20    19    1
     4    19    18    1
     5    18     1    1
     6     1     2   ar
     7     2    10    1
     8    10    11    1
     9    11    12    1
    10    12    13    1
    11    13    15    1
    12    15    16    1
    13    15    17    1
    14    13    14    1
    15     2     3   ar
    16     3     4   ar
    17     4     5   ar
    18     5     6   ar
    19     6     7   ar
    20     7     8   ar
    21     8     9   ar
    22     9     1   ar
    23    14    10    1
    24     9     4   ar
@<TRIPOS>MOLECULE
*****
 22 24 0 0 0
SMALL
GASTEIGER

@<TRIPOS>ATOM
      1 N         141.1098  140.8437  166.0061 N.ar    1  UNL1       -0.2970
      2 C         140.2486  142.0718  166.0148 C.ar    1  UNL1        0.2012
      3 N         140.1247  142.5410  167.4342 N.ar    1  UNL1       -0.2136
      4 C         140.9094  141.6029  168.3027 C.ar    1  UNL1        0.0999
      5 C         141.1483  141.5684  169.7831 C.ar    1  UNL1        0.0207
      6 C         141.9959  140.4849  170.3809 C.ar    1  UNL1        0.0016
      7 C         142.6047  139.4359  169.4983 C.ar    1  UNL1        0.0016
      8 C         142.3659  139.4704  168.0179 C.ar    1  UNL1        0.0188
      9 C         141.5182  140.5539  167.4201 C.ar    1  UNL1        0.0799
     10 N         139.6213  142.7173  164.8149 N.pl3   1  UNL1       -0.2781
     11 C         138.1639  142.6919  164.4609 C.3     1  UNL1        0.0950
     12 C         137.9831  143.4605  163.1855 C.3     1  UNL1        0.0392
     13 C         139.3288  143.9609  162.7513 C.3     1  UNL1        0.0792
     14 C         140.3412  143.5016  163.7583 C.3     1  UNL1        0.1095
     15 N         139.6124  144.7773  161.5253 N.3     1  UNL1       -0.2699
     16 C         139.6571  146.2740  161.6146 C.3     1  UNL1        0.0897
     17 C         139.8512  144.0970  160.2099 C.3     1  UNL1        0.0897
     18 C         141.4950  140.0455  164.7960 C.3     1  UNL1        0.1407
     19 C         140.5740  138.9829  164.2740 C.3     1  UNL1        0.1666
     20 O         139.6849  138.2304  165.2192 O.3     1  UNL1       -0.3517
     21 C         137.8550  138.7017  167.0023 C.3     1  UNL1        0.0346
     22 C         138.3398  138.7843  165.5852 C.3     1  UNL1        0.1423
@<TRIPOS>BOND
     1    21    22    1
     2    22    20    1
     3    20    19    1
     4    19    18    1
     5    18     1    1
     6     1     2   ar
     7     2    10    1
     8    10    11    1
     9    11    12    1
    10    12    13    1
    11    13    15    1
    12    15    16    1
    13    15    17    1
    14    13    14    1
    15     2     3   ar
    16     3     4   ar
    17     4     5   ar
    18     5     6   ar
    19     6     7   ar
    20     7     8   ar
    21     8     9   ar
    22     9     1   ar
    23    14    10    1
    24     9     4   ar
@<TRIPOS>MOLECULE
*****
 22 24 0 0 0
SMALL
GASTEIGER

@<TRIPOS>ATOM
      1 N         142.5341  141.0981  165.6040 N.ar    1  UNL1       -0.2970
      2 C         142.0270  139.7080  165.3585 C.ar    1  UNL1        0.2012
      3 N         141.9634  138.9981  166.6783 N.ar    1  UNL1       -0.2136
      4 C         142.4311  139.9494  167.7395 C.ar    1  UNL1        0.0999
      5 C         142.5814  139.8016  169.2246 C.ar    1  UNL1        0.0207
      6 C         143.0844  140.9517  170.0457 C.ar    1  UNL1        0.0016
      7 C         143.4371  142.2496  169.3817 C.ar    1  UNL1        0.0016
      8 C         143.2869  142.3975  167.8966 C.ar    1  UNL1        0.0188
      9 C         142.7839  141.2474  167.0755 C.ar    1  UNL1        0.0799
     10 N         141.6499  139.1293  164.0270 N.pl3   1  UNL1       -0.2781
     11 C         142.5455  138.3307  163.1271 C.3     1  UNL1        0.0950
     12 C         141.7600  137.9555  161.9055 C.3     1  UNL1        0.0392
     13 C         140.3788  138.5223  162.0505 C.3     1  UNL1        0.0792
     14 C         140.3108  139.2477  163.3616 C.3     1  UNL1        0.1095
     15 N         139.2618  138.3873  161.0585 N.3     1  UNL1       -0.2699
     16 C         139.5611  138.3781  159.5886 C.3     1  UNL1        0.0897
     17 C         137.8456  138.2616  161.5363 C.3     1  UNL1        0.0897
     18 C         142.7531  142.1538  164.5611 C.3     1  UNL1        0.1407
     19 C         141.5934  142.6717  163.7631 C.3     1  UNL1        0.1666
     20 O         140.2279  142.7376  164.3805 O.3     1  UNL1       -0.3517
     21 C         138.7747  144.6612  165.3489 C.3     1  UNL1        0.0346
     22 C         139.9441  143.7296  165.4692 C.3     1  UNL1        0.1423
@<TRIPOS>BOND
     1    21    22    1
     2    22    20    1
     3    20    19    1
     4    19    18    1
     5    18     1    1
     6     1     2   ar
     7     2    10    1
     8    10    11    1
     9    11    12    1
    10    12    13    1
    11    13    15    1
    12    15    16    1
    13    15    17    1
    14    13    14    1
    15     2     3   ar
    16     3     4   ar
    17     4     5   ar
    18     5     6   ar
    19     6     7   ar
    20     7     8   ar
    21     8     9   ar
    22     9     1   ar
    23    14    10    1
    24     9     4   ar
