@<TRIPOS>MOLECULE
*****
 36 39 0 0 0
SMALL
GASTEIGER

@<TRIPOS>ATOM
      1 C         137.9899  142.2688  163.9407 C.3     1  UNL1        0.2722
      2 C         138.9117  142.0555  165.1048 C.2     1  UNL1        0.2701
      3 O         139.6297  143.2219  165.7163 O.2     1  UNL1       -0.2707
      4 N         139.1154  140.6759  165.6572 N.am    1  UNL1       -0.2663
      5 H         138.6441  139.9104  165.2558 H       1  UNL1        0.1564
      6 C         140.0372  140.4627  166.8212 C.ar    1  UNL1        0.1343
      7 C         139.4733  140.2332  168.1921 C.ar    1  UNL1        0.0354
      8 C         140.3951  140.0199  169.3561 C.ar    1  UNL1        0.0158
      9 C         141.8807  140.0361  169.1492 C.ar    1  UNL1        0.0769
     10 CL        142.8024  139.8229  170.3131 Cl      1  UNL1       -0.0806
     11 C         142.4445  140.2656  167.7782 C.ar    1  UNL1        0.1116
     12 N         141.5227  140.4789  166.6142 N.ar    1  UNL1       -0.2281
     13 C         137.7825  143.6490  163.3914 C.3     1  UNL1        0.1951
     14 O         138.4570  144.0577  162.1154 O.3     1  UNL1       -0.3493
     15 C         139.7151  146.2970  161.7248 C.3     1  UNL1        0.0347
     16 C         139.7226  144.8617  162.1603 C.3     1  UNL1        0.1446
     17 C         140.9956  144.2303  162.6406 C.3     1  UNL1        0.1666
     18 O         141.5313  144.5639  164.0013 O.3     1  UNL1       -0.3795
     19 H         141.7939  145.4974  164.0254 H       1  UNL1        0.2105
     20 O         137.2757  141.1017  163.3261 O.3     1  UNL1       -0.4517
     21 C         138.0606  139.9856  162.7029 C.ar    1  UNL1        0.2312
     22 N         138.4545  138.7951  163.5260 N.ar    1  UNL1       -0.1892
     23 C         139.2394  137.6790  162.9028 C.ar    1  UNL1        0.2029
     24 N         139.6303  137.7535  161.4566 N.ar    1  UNL1       -0.2045
     25 C         139.2364  138.9440  160.6335 C.ar    1  UNL1        0.1732
     26 C         138.4515  140.0600  161.2567 C.ar    1  UNL1        0.1099
     27 C         138.2073  141.0996  160.2032 C.ar    1  UNL1        0.1283
     28 N         138.8413  140.6259  158.9289 N.ar    1  UNL1       -0.1606
     29 N         139.4773  139.2937  159.1949 N.ar    1  UNL1       -0.1936
     30 C         140.2232  138.4579  158.1974 C.ar    1  UNL1        0.1759
     31 N         139.4814  137.7757  157.0864 N.ar    1  UNL1       -0.2242
     32 C         140.2274  136.9399  156.0889 C.ar    1  UNL1        0.1006
     33 C         141.7152  136.7863  156.2023 C.ar    1  UNL1        0.0217
     34 C         142.4570  137.4686  157.3133 C.ar    1  UNL1        0.0161
     35 C         141.7110  138.3044  158.3108 C.ar    1  UNL1        0.0935
     36 CL        142.4529  138.9866  159.4217 Cl      1  UNL1       -0.0790
@<TRIPOS>BOND
     1    16    15    1
     2    16    17    1
     3    17    18    1
     4    16    14    1
     5    14    13    1
     6     1    13    1
     7     1    20    1
     8    20    21    1
     9    21    22   ar
    10    22    23   ar
    11    23    24   ar
    12    24    25   ar
    13    25    26   ar
    14    26    27   ar
    15    27    28   ar
    16    28    29   ar
    17    29    30    1
    18    30    31   ar
    19    31    32   ar
    20    32    33   ar
    21    33    34   ar
    22    34    35   ar
    23    35    36    1
    24     1     2    1
    25     2     3    2
    26     2     4   am
    27     4     6    1
    28     6     7   ar
    29     7     8   ar
    30     8     9   ar
    31     9    10    1
    32     9    11   ar
    33    11    12   ar
    34    26    21   ar
    35    35    30   ar
    36    12     6   ar
    37    29    25   ar
    38    18    19    1
    39     4     5    1
@<TRIPOS>MOLECULE
*****
 36 39 0 0 0
SMALL
GASTEIGER

@<TRIPOS>ATOM
      1 C         142.4511  139.6665  166.5307 C.3     1  UNL1        0.2722
      2 C         142.1821  140.9281  165.7651 C.2     1  UNL1        0.2701
      3 O         143.2612  141.9592  165.6155 O.2     1  UNL1       -0.2707
      4 N         140.8340  141.1586  165.1491 N.am    1  UNL1       -0.2663
      5 H         140.1258  140.4819  165.2472 H       1  UNL1        0.1564
      6 C         140.5650  142.4202  164.3835 C.ar    1  UNL1        0.1343
      7 C         139.8573  143.5640  165.0475 C.ar    1  UNL1        0.0354
      8 C         139.5883  144.8255  164.2820 C.ar    1  UNL1        0.0158
      9 C         140.0270  144.9433  162.8523 C.ar    1  UNL1        0.0769
     10 CL        139.7580  146.2048  162.0868 Cl      1  UNL1       -0.0806
     11 C         140.7347  143.7995  162.1884 C.ar    1  UNL1        0.1116
     12 N         141.0037  142.5379  162.9540 N.ar    1  UNL1       -0.2281
     13 C         142.5793  139.7087  168.0246 C.3     1  UNL1        0.1951
     14 O         141.3521  139.8206  168.8798 O.3     1  UNL1       -0.3493
     15 C         140.8019  142.3592  168.8291 C.3     1  UNL1        0.0347
     16 C         141.0569  141.1006  169.6041 C.3     1  UNL1        0.1446
     17 C         141.0168  141.1218  171.1034 C.3     1  UNL1        0.1666
     18 O         142.2115  140.6739  171.8920 O.3     1  UNL1       -0.3795
     19 H         142.3578  139.7260  171.7470 H       1  UNL1        0.2105
     20 O         142.5918  138.3628  165.8023 O.3     1  UNL1       -0.4517
     21 C         141.8646  138.1442  164.5086 C.ar    1  UNL1        0.2312
     22 N         140.4323  137.6989  164.5194 N.ar    1  UNL1       -0.1892
     23 C         139.7052  137.4802  163.2258 C.ar    1  UNL1        0.2029
     24 N         140.4104  137.7069  161.9215 N.ar    1  UNL1       -0.2045
     25 C         141.8427  138.1522  161.9107 C.ar    1  UNL1        0.1732
     26 C         142.5698  138.3708  163.2043 C.ar    1  UNL1        0.1099
     27 C         143.9683  138.8074  162.8820 C.ar    1  UNL1        0.1283
     28 N         144.1054  138.8585  161.3891 N.ar    1  UNL1       -0.1606
     29 N         142.7917  138.4536  160.7889 N.ar    1  UNL1       -0.1936
     30 C         142.4815  138.3655  159.3240 C.ar    1  UNL1        0.1759
     31 N         142.9956  137.2107  158.5165 N.ar    1  UNL1       -0.2242
     32 C         142.6854  137.1226  157.0516 C.ar    1  UNL1        0.1006
     33 C         141.8610  138.1894  156.3941 C.ar    1  UNL1        0.0217
     34 C         141.3469  139.3443  157.2015 C.ar    1  UNL1        0.0161
     35 C         141.6572  139.4323  158.6664 C.ar    1  UNL1        0.0935
     36 CL        141.1430  140.5872  159.4738 Cl      1  UNL1       -0.0790
@<TRIPOS>BOND
     1    16    15    1
     2    16    17    1
     3    17    18    1
     4    16    14    1
     5    14    13    1
     6     1    13    1
     7     1    20    1
     8    20    21    1
     9    21    22   ar
    10    22    23   ar
    11    23    24   ar
    12    24    25   ar
    13    25    26   ar
    14    26    27   ar
    15    27    28   ar
    16    28    29   ar
    17    29    30    1
    18    30    31   ar
    19    31    32   ar
    20    32    33   ar
    21    33    34   ar
    22    34    35   ar
    23    35    36    1
    24     1     2    1
    25     2     3    2
    26     2     4   am
    27     4     6    1
    28     6     7   ar
    29     7     8   ar
    30     8     9   ar
    31     9    10    1
    32     9    11   ar
    33    11    12   ar
    34    26    21   ar
    35    35    30   ar
    36    12     6   ar
    37    29    25   ar
    38    18    19    1
    39     4     5    1
@<TRIPOS>MOLECULE
*****
 36 39 0 0 0
SMALL
GASTEIGER

@<TRIPOS>ATOM
      1 C         139.9395  138.0790  161.2813 C.3     1  UNL1        0.2722
      2 C         141.1342  138.4414  160.4498 C.2     1  UNL1        0.2701
      3 O         142.4639  137.8068  160.7309 O.2     1  UNL1       -0.2707
      4 N         140.9991  139.4384  159.3373 N.am    1  UNL1       -0.2663
      5 H         140.1263  139.8549  159.1528 H       1  UNL1        0.1564
      6 C         142.1938  139.8008  158.5058 C.ar    1  UNL1        0.1343
      7 C         142.4516  139.0868  157.2121 C.ar    1  UNL1        0.0354
      8 C         143.6463  139.4492  156.3806 C.ar    1  UNL1        0.0158
      9 C         144.5831  140.5257  156.8428 C.ar    1  UNL1        0.0769
     10 CL        145.7778  140.8881  156.0113 Cl      1  UNL1       -0.0806
     11 C         144.3253  141.2397  158.1365 C.ar    1  UNL1        0.1116
     12 N         143.1306  140.8772  158.9680 N.ar    1  UNL1       -0.2281
     13 C         138.5692  138.5171  160.8565 C.3     1  UNL1        0.1951
     14 O         138.3730  139.8679  160.2345 O.3     1  UNL1       -0.3493
     15 C         138.4467  142.4493  160.5192 C.3     1  UNL1        0.0347
     16 C         138.2458  141.0830  161.1048 C.3     1  UNL1        0.1446
     17 C         137.9178  140.9319  162.5606 C.3     1  UNL1        0.1666
     18 O         136.5666  141.3367  163.0709 O.3     1  UNL1       -0.3795
     19 H         136.4608  142.2966  162.9794 H       1  UNL1        0.2105
     20 O         140.1150  137.2785  162.5377 O.3     1  UNL1       -0.4517
     21 C         139.9604  137.9389  163.8756 C.ar    1  UNL1        0.2312
     22 N         138.6014  138.0634  164.4980 N.ar    1  UNL1       -0.1892
     23 C         138.4469  138.7238  165.8359 C.ar    1  UNL1        0.2029
     24 N         139.6514  139.2598  166.5513 N.ar    1  UNL1       -0.2045
     25 C         141.0104  139.1354  165.9289 C.ar    1  UNL1        0.1732
     26 C         141.1649  138.4749  164.5910 C.ar    1  UNL1        0.1099
     27 C         142.6204  138.4968  164.2286 C.ar    1  UNL1        0.1283
     28 N         143.3653  139.1708  165.3425 N.ar    1  UNL1       -0.1606
     29 N         142.3703  139.5654  166.3933 N.ar    1  UNL1       -0.1936
     30 C         142.6807  140.2670  167.6823 C.ar    1  UNL1        0.1759
     31 N         142.7077  139.4956  168.9684 N.ar    1  UNL1       -0.2242
     32 C         143.0181  140.1972  170.2574 C.ar    1  UNL1        0.1006
     33 C         143.3015  141.6702  170.2603 C.ar    1  UNL1        0.0217
     34 C         143.2744  142.4415  168.9741 C.ar    1  UNL1        0.0161
     35 C         142.9641  141.7400  167.6851 C.ar    1  UNL1        0.0935
     36 CL        142.9371  142.5114  166.3990 Cl      1  UNL1       -0.0790
@<TRIPOS>BOND
     1    16    15    1
     2    16    17    1
     3    17    18    1
     4    16    14    1
     5    14    13    1
     6     1    13    1
     7     1    20    1
     8    20    21    1
     9    21    22   ar
    10    22    23   ar
    11    23    24   ar
    12    24    25   ar
    13    25    26   ar
    14    26    27   ar
    15    27    28   ar
    16    28    29   ar
    17    29    30    1
    18    30    31   ar
    19    31    32   ar
    20    32    33   ar
    21    33    34   ar
    22    34    35   ar
    23    35    36    1
    24     1     2    1
    25     2     3    2
    26     2     4   am
    27     4     6    1
    28     6     7   ar
    29     7     8   ar
    30     8     9   ar
    31     9    10    1
    32     9    11   ar
    33    11    12   ar
    34    26    21   ar
    35    35    30   ar
    36    12     6   ar
    37    29    25   ar
    38    18    19    1
    39     4     5    1
@<TRIPOS>MOLECULE
*****
 36 39 0 0 0
SMALL
GASTEIGER

@<TRIPOS>ATOM
      1 C         140.8243  137.9717  161.2774 C.3     1  UNL1        0.2722
      2 C         141.9434  138.5637  160.4729 C.2     1  UNL1        0.2701
      3 O         143.2655  137.8595  160.3955 O.2     1  UNL1       -0.2707
      4 N         141.7403  139.8599  159.7459 N.am    1  UNL1       -0.2663
      5 H         140.8725  140.3221  159.7968 H       1  UNL1        0.1564
      6 C         142.8593  140.4520  158.9415 C.ar    1  UNL1        0.1343
      7 C         143.5836  141.6657  159.4437 C.ar    1  UNL1        0.0354
      8 C         144.7026  142.2577  158.6393 C.ar    1  UNL1        0.0158
      9 C         145.0975  141.6360  157.3325 C.ar    1  UNL1        0.0769
     10 CL        146.2165  142.2281  156.5280 Cl      1  UNL1       -0.0806
     11 C         144.3732  140.4223  156.8302 C.ar    1  UNL1        0.1116
     12 N         143.2541  139.8302  157.6347 N.ar    1  UNL1       -0.2281
     13 C         139.4150  138.0443  160.7689 C.3     1  UNL1        0.1951
     14 O         138.3325  138.6129  161.6378 O.3     1  UNL1       -0.3493
     15 C         138.2284  140.9203  160.4480 C.3     1  UNL1        0.0347
     16 C         138.1201  140.0967  161.6970 C.3     1  UNL1        0.1446
     17 C         137.7995  140.7568  163.0052 C.3     1  UNL1        0.1666
     18 O         136.4834  141.4517  163.1919 O.3     1  UNL1       -0.3795
     19 H         136.4391  142.2232  162.6056 H       1  UNL1        0.2105
     20 O         141.1145  137.3070  162.5904 O.3     1  UNL1       -0.4517
     21 C         141.6624  138.1102  163.7327 C.ar    1  UNL1        0.2312
     22 N         143.1213  138.4561  163.7746 N.ar    1  UNL1       -0.1892
     23 C         143.6691  139.2593  164.9169 C.ar    1  UNL1        0.2029
     24 N         142.7580  139.7165  166.0173 N.ar    1  UNL1       -0.2045
     25 C         141.2991  139.3706  165.9754 C.ar    1  UNL1        0.1732
     26 C         140.7512  138.5674  164.8331 C.ar    1  UNL1        0.1099
     27 C         139.2805  138.3803  165.0613 C.ar    1  UNL1        0.1283
     28 N         138.9194  139.0678  166.3446 N.ar    1  UNL1       -0.1606
     29 N         140.1669  139.6798  166.9095 N.ar    1  UNL1       -0.1936
     30 C         140.2651  140.4635  168.1847 C.ar    1  UNL1        0.1759
     31 N         140.2756  139.7506  169.5043 N.ar    1  UNL1       -0.2242
     32 C         140.3738  140.5343  170.7795 C.ar    1  UNL1        0.1006
     33 C         140.4615  142.0311  170.7351 C.ar    1  UNL1        0.0217
     34 C         140.4511  142.7440  169.4155 C.ar    1  UNL1        0.0161
     35 C         140.3529  141.9603  168.1403 C.ar    1  UNL1        0.0935
     36 CL        140.3424  142.6734  166.8207 Cl      1  UNL1       -0.0790
@<TRIPOS>BOND
     1    16    15    1
     2    16    17    1
     3    17    18    1
     4    16    14    1
     5    14    13    1
     6     1    13    1
     7     1    20    1
     8    20    21    1
     9    21    22   ar
    10    22    23   ar
    11    23    24   ar
    12    24    25   ar
    13    25    26   ar
    14    26    27   ar
    15    27    28   ar
    16    28    29   ar
    17    29    30    1
    18    30    31   ar
    19    31    32   ar
    20    32    33   ar
    21    33    34   ar
    22    34    35   ar
    23    35    36    1
    24     1     2    1
    25     2     3    2
    26     2     4   am
    27     4     6    1
    28     6     7   ar
    29     7     8   ar
    30     8     9   ar
    31     9    10    1
    32     9    11   ar
    33    11    12   ar
    34    26    21   ar
    35    35    30   ar
    36    12     6   ar
    37    29    25   ar
    38    18    19    1
    39     4     5    1
@<TRIPOS>MOLECULE
*****
 36 39 0 0 0
SMALL
GASTEIGER

@<TRIPOS>ATOM
      1 C         139.0022  142.4223  161.2824 C.3     1  UNL1        0.2722
      2 C         139.1785  142.9376  159.8847 C.2     1  UNL1        0.2701
      3 O         138.2068  142.5438  158.8120 O.2     1  UNL1       -0.2707
      4 N         140.3265  143.8467  159.5598 N.am    1  UNL1       -0.2663
      5 H         140.9642  144.1052  160.2638 H       1  UNL1        0.1564
      6 C         140.5028  144.3620  158.1622 C.ar    1  UNL1        0.1343
      7 C         140.2626  145.8118  157.8614 C.ar    1  UNL1        0.0354
      8 C         140.4389  146.3271  156.4638 C.ar    1  UNL1        0.0158
      9 C         140.8555  145.3925  155.3669 C.ar    1  UNL1        0.0769
     10 CL        141.0319  145.9078  153.9693 Cl      1  UNL1       -0.0806
     11 C         141.0958  143.9428  155.6676 C.ar    1  UNL1        0.1116
     12 N         140.9194  143.4275  157.0653 N.ar    1  UNL1       -0.2281
     13 C         137.8415  142.8858  162.1118 C.3     1  UNL1        0.1951
     14 O         137.7640  144.3148  162.5612 O.3     1  UNL1       -0.3493
     15 C         139.1090  144.7687  164.7373 C.3     1  UNL1        0.0347
     16 C         138.9326  144.9462  163.2583 C.3     1  UNL1        0.1446
     17 C         139.9248  145.7550  162.4764 C.3     1  UNL1        0.1666
     18 O         141.2903  146.0153  163.0398 O.3     1  UNL1       -0.3795
     19 H         141.2133  146.5726  163.8299 H       1  UNL1        0.2105
     20 O         139.9866  141.4436  161.8506 O.3     1  UNL1       -0.4517
     21 C         140.7443  141.7817  163.1004 C.ar    1  UNL1        0.2312
     22 N         141.8760  142.7648  163.0485 N.ar    1  UNL1       -0.1892
     23 C         142.6335  143.1029  164.2982 C.ar    1  UNL1        0.2029
     24 N         142.2594  142.4579  165.5997 N.ar    1  UNL1       -0.2045
     25 C         141.1277  141.4749  165.6516 C.ar    1  UNL1        0.1732
     26 C         140.3701  141.1368  164.4019 C.ar    1  UNL1        0.1099
     27 C         139.3090  140.1383  164.7588 C.ar    1  UNL1        0.1283
     28 N         139.4109  139.8594  166.2291 N.ar    1  UNL1       -0.1606
     29 N         140.5349  140.6854  166.7809 N.ar    1  UNL1       -0.1936
     30 C         140.9867  140.7165  168.2108 C.ar    1  UNL1        0.1759
     31 N         140.2488  141.5544  169.2125 N.ar    1  UNL1       -0.2242
     32 C         140.7006  141.5855  170.6425 C.ar    1  UNL1        0.1006
     33 C         141.8905  140.7788  171.0709 C.ar    1  UNL1        0.0217
     34 C         142.6284  139.9409  170.0692 C.ar    1  UNL1        0.0161
     35 C         142.1765  139.9098  168.6392 C.ar    1  UNL1        0.0935
     36 CL        142.9145  139.0719  167.6375 Cl      1  UNL1       -0.0790
@<TRIPOS>BOND
     1    16    15    1
     2    16    17    1
     3    17    18    1
     4    16    14    1
     5    14    13    1
     6     1    13    1
     7     1    20    1
     8    20    21    1
     9    21    22   ar
    10    22    23   ar
    11    23    24   ar
    12    24    25   ar
    13    25    26   ar
    14    26    27   ar
    15    27    28   ar
    16    28    29   ar
    17    29    30    1
    18    30    31   ar
    19    31    32   ar
    20    32    33   ar
    21    33    34   ar
    22    34    35   ar
    23    35    36    1
    24     1     2    1
    25     2     3    2
    26     2     4   am
    27     4     6    1
    28     6     7   ar
    29     7     8   ar
    30     8     9   ar
    31     9    10    1
    32     9    11   ar
    33    11    12   ar
    34    26    21   ar
    35    35    30   ar
    36    12     6   ar
    37    29    25   ar
    38    18    19    1
    39     4     5    1
@<TRIPOS>MOLECULE
*****
 36 39 0 0 0
SMALL
GASTEIGER

@<TRIPOS>ATOM
      1 C         140.0141  144.2019  163.9409 C.3     1  UNL1        0.2722
      2 C         140.4824  143.1002  164.8449 C.2     1  UNL1        0.2701
      3 O         140.9528  141.8007  164.2619 O.2     1  UNL1       -0.2707
      4 N         140.4801  143.2981  166.3317 N.am    1  UNL1       -0.2663
      5 H         140.1714  144.1511  166.7143 H       1  UNL1        0.1564
      6 C         140.9483  142.1965  167.2357 C.ar    1  UNL1        0.1343
      7 C         142.3383  142.2280  167.7987 C.ar    1  UNL1        0.0354
      8 C         142.8065  141.1263  168.7026 C.ar    1  UNL1        0.0158
      9 C         141.8847  139.9931  169.0436 C.ar    1  UNL1        0.0769
     10 CL        142.3529  138.8915  169.9475 Cl      1  UNL1       -0.0806
     11 C         140.4947  139.9616  168.4806 C.ar    1  UNL1        0.1116
     12 N         140.0265  141.0634  167.5766 N.ar    1  UNL1       -0.2281
     13 C         138.5472  144.4775  163.7920 C.3     1  UNL1        0.1951
     14 O         137.8368  144.0946  162.5276 O.3     1  UNL1       -0.3493
     15 C         138.4468  142.3557  160.6962 C.3     1  UNL1        0.0347
     16 C         137.8756  142.6745  162.0460 C.3     1  UNL1        0.1446
     17 C         137.3432  141.5733  162.9143 C.3     1  UNL1        0.1666
     18 O         138.2905  140.6925  163.6736 O.3     1  UNL1       -0.3795
     19 H         138.8150  140.1675  163.0489 H       1  UNL1        0.2105
     20 O         141.0129  145.0281  163.1859 O.3     1  UNL1       -0.4517
     21 C         141.2836  144.7402  161.7389 C.ar    1  UNL1        0.2312
     22 N         140.4333  145.3716  160.6767 N.ar    1  UNL1       -0.1892
     23 C         140.7040  145.0837  159.2297 C.ar    1  UNL1        0.2029
     24 N         141.8250  144.1643  158.8449 N.ar    1  UNL1       -0.2045
     25 C         142.6753  143.5329  159.9071 C.ar    1  UNL1        0.1732
     26 C         142.4046  143.8208  161.3541 C.ar    1  UNL1        0.1099
     27 C         143.4034  143.0582  162.1732 C.ar    1  UNL1        0.1283
     28 N         144.2914  142.2990  161.2325 N.ar    1  UNL1       -0.1606
     29 N         143.8414  142.5924  159.8319 N.ar    1  UNL1       -0.1936
     30 C         144.4506  142.0418  158.5766 C.ar    1  UNL1        0.1759
     31 N         145.6801  142.6772  157.9984 N.ar    1  UNL1       -0.2242
     32 C         146.2893  142.1267  156.7430 C.ar    1  UNL1        0.1006
     33 C         145.6688  140.9408  156.0659 C.ar    1  UNL1        0.0217
     34 C         144.4393  140.3054  156.6441 C.ar    1  UNL1        0.0161
     35 C         143.8301  140.8559  157.8994 C.ar    1  UNL1        0.0935
     36 CL        142.6006  140.2204  158.4776 Cl      1  UNL1       -0.0790
@<TRIPOS>BOND
     1    16    15    1
     2    16    17    1
     3    17    18    1
     4    16    14    1
     5    14    13    1
     6     1    13    1
     7     1    20    1
     8    20    21    1
     9    21    22   ar
    10    22    23   ar
    11    23    24   ar
    12    24    25   ar
    13    25    26   ar
    14    26    27   ar
    15    27    28   ar
    16    28    29   ar
    17    29    30    1
    18    30    31   ar
    19    31    32   ar
    20    32    33   ar
    21    33    34   ar
    22    34    35   ar
    23    35    36    1
    24     1     2    1
    25     2     3    2
    26     2     4   am
    27     4     6    1
    28     6     7   ar
    29     7     8   ar
    30     8     9   ar
    31     9    10    1
    32     9    11   ar
    33    11    12   ar
    34    26    21   ar
    35    35    30   ar
    36    12     6   ar
    37    29    25   ar
    38    18    19    1
    39     4     5    1
@<TRIPOS>MOLECULE
*****
 36 39 0 0 0
SMALL
GASTEIGER

@<TRIPOS>ATOM
      1 C         138.9146  138.7967  162.1615 C.3     1  UNL1        0.2722
      2 C         139.2743  138.7899  163.6178 C.2     1  UNL1        0.2701
      3 O         138.9138  137.6121  164.4739 O.2     1  UNL1       -0.2707
      4 N         139.9945  139.9608  164.2179 N.am    1  UNL1       -0.2663
      5 H         140.2311  140.7338  163.6560 H       1  UNL1        0.1564
      6 C         140.3543  139.9540  165.6741 C.ar    1  UNL1        0.1343
      7 C         141.7752  139.7216  166.0945 C.ar    1  UNL1        0.0354
      8 C         142.1350  139.7148  167.5507 C.ar    1  UNL1        0.0158
      9 C         141.0737  139.9405  168.5865 C.ar    1  UNL1        0.0769
     10 CL        141.4334  139.9337  170.0427 Cl      1  UNL1       -0.0806
     11 C         139.6527  140.1729  168.1661 C.ar    1  UNL1        0.1116
     12 N         139.2930  140.1796  166.7098 N.ar    1  UNL1       -0.2281
     13 C         137.8026  139.6739  161.6678 C.3     1  UNL1        0.1951
     14 O         137.4133  140.8985  162.4417 O.3     1  UNL1       -0.3493
     15 C         138.7576  142.3967  160.7990 C.3     1  UNL1        0.0347
     16 C         138.0048  142.2302  162.0857 C.3     1  UNL1        0.1446
     17 C         137.8434  143.3954  163.0164 C.3     1  UNL1        0.1666
     18 O         137.4976  144.7490  162.4704 O.3     1  UNL1       -0.3795
     19 H         138.2318  145.0757  161.9270 H       1  UNL1        0.2105
     20 O         139.6669  137.9262  161.1991 O.3     1  UNL1       -0.4517
     21 C         141.1022  138.2251  160.8818 C.ar    1  UNL1        0.2312
     22 N         142.1902  137.7213  161.7832 N.ar    1  UNL1       -0.1892
     23 C         143.6254  138.0202  161.4659 C.ar    1  UNL1        0.2029
     24 N         143.9727  138.8229  160.2473 N.ar    1  UNL1       -0.2045
     25 C         142.8847  139.3267  159.3459 C.ar    1  UNL1        0.1732
     26 C         141.4495  139.0278  159.6632 C.ar    1  UNL1        0.1099
     27 C         140.5992  139.6528  158.5971 C.ar    1  UNL1        0.1283
     28 N         141.5090  140.3380  157.6210 N.ar    1  UNL1       -0.1606
     29 N         142.9215  140.1365  158.0838 N.ar    1  UNL1       -0.1936
     30 C         144.1544  140.6538  157.4038 C.ar    1  UNL1        0.1759
     31 N         144.7512  139.8963  156.2550 N.ar    1  UNL1       -0.2242
     32 C         145.9841  140.4136  155.5751 C.ar    1  UNL1        0.1006
     33 C         146.6202  141.6886  156.0439 C.ar    1  UNL1        0.0217
     34 C         146.0233  142.4462  157.1927 C.ar    1  UNL1        0.0161
     35 C         144.7904  141.9288  157.8727 C.ar    1  UNL1        0.0935
     36 CL        144.1936  142.6864  159.0215 Cl      1  UNL1       -0.0790
@<TRIPOS>BOND
     1    16    15    1
     2    16    17    1
     3    17    18    1
     4    16    14    1
     5    14    13    1
     6     1    13    1
     7     1    20    1
     8    20    21    1
     9    21    22   ar
    10    22    23   ar
    11    23    24   ar
    12    24    25   ar
    13    25    26   ar
    14    26    27   ar
    15    27    28   ar
    16    28    29   ar
    17    29    30    1
    18    30    31   ar
    19    31    32   ar
    20    32    33   ar
    21    33    34   ar
    22    34    35   ar
    23    35    36    1
    24     1     2    1
    25     2     3    2
    26     2     4   am
    27     4     6    1
    28     6     7   ar
    29     7     8   ar
    30     8     9   ar
    31     9    10    1
    32     9    11   ar
    33    11    12   ar
    34    26    21   ar
    35    35    30   ar
    36    12     6   ar
    37    29    25   ar
    38    18    19    1
    39     4     5    1
@<TRIPOS>MOLECULE
*****
 36 39 0 0 0
SMALL
GASTEIGER

@<TRIPOS>ATOM
      1 C         137.8644  140.3138  161.7579 C.3     1  UNL1        0.2722
      2 C         138.5016  141.1206  160.6656 C.2     1  UNL1        0.2701
      3 O         137.9655  141.0449  159.2668 O.2     1  UNL1       -0.2707
      4 N         139.6750  142.0033  160.9723 N.am    1  UNL1       -0.2663
      5 H         140.0269  142.0530  161.8904 H       1  UNL1        0.1564
      6 C         140.3123  142.8102  159.8802 C.ar    1  UNL1        0.1343
      7 C         140.0076  144.2734  159.7533 C.ar    1  UNL1        0.0354
      8 C         140.6448  145.0803  158.6612 C.ar    1  UNL1        0.0158
      9 C         141.5868  144.4239  157.6958 C.ar    1  UNL1        0.0769
     10 CL        142.2241  145.2307  156.6036 Cl      1  UNL1       -0.0806
     11 C         141.8915  142.9606  157.8226 C.ar    1  UNL1        0.1116
     12 N         141.2542  142.1538  158.9148 N.ar    1  UNL1       -0.2281
     13 C         137.7526  138.8241  161.6222 C.3     1  UNL1        0.1951
     14 O         138.5962  137.9276  162.4792 O.3     1  UNL1       -0.3493
     15 C         140.8547  138.0682  163.7558 C.3     1  UNL1        0.0347
     16 C         140.0899  138.0651  162.4654 C.3     1  UNL1        0.1446
     17 C         140.8187  138.1996  161.1613 C.3     1  UNL1        0.1666
     18 O         141.4369  139.5118  160.7795 O.3     1  UNL1       -0.3795
     19 H         140.7383  140.1710  160.6438 H       1  UNL1        0.2105
     20 O         137.3389  140.9966  162.9857 O.3     1  UNL1       -0.4517
     21 C         138.2926  141.5297  164.0136 C.ar    1  UNL1        0.2312
     22 N         138.9470  142.8637  163.8091 N.ar    1  UNL1       -0.1892
     23 C         139.9006  143.3967  164.8369 C.ar    1  UNL1        0.2029
     24 N         140.1998  142.5957  166.0693 N.ar    1  UNL1       -0.2045
     25 C         139.5453  141.2616  166.2739 C.ar    1  UNL1        0.1732
     26 C         138.5917  140.7286  165.2460 C.ar    1  UNL1        0.1099
     27 C         138.1019  139.3914  165.7174 C.ar    1  UNL1        0.1283
     28 N         138.7528  139.0981  167.0366 N.ar    1  UNL1       -0.1606
     29 N         139.6449  140.2539  167.3805 N.ar    1  UNL1       -0.1936
     30 C         140.4884  140.3799  168.6144 C.ar    1  UNL1        0.1759
     31 N         139.8872  140.9074  169.8833 N.ar    1  UNL1       -0.2242
     32 C         140.7308  141.0335  171.1172 C.ar    1  UNL1        0.1006
     33 C         142.1756  140.6319  171.0822 C.ar    1  UNL1        0.0217
     34 C         142.7768  140.1044  169.8133 C.ar    1  UNL1        0.0161
     35 C         141.9332  139.9784  168.5794 C.ar    1  UNL1        0.0935
     36 CL        142.5345  139.4508  167.3105 Cl      1  UNL1       -0.0790
@<TRIPOS>BOND
     1    16    15    1
     2    16    17    1
     3    17    18    1
     4    16    14    1
     5    14    13    1
     6     1    13    1
     7     1    20    1
     8    20    21    1
     9    21    22   ar
    10    22    23   ar
    11    23    24   ar
    12    24    25   ar
    13    25    26   ar
    14    26    27   ar
    15    27    28   ar
    16    28    29   ar
    17    29    30    1
    18    30    31   ar
    19    31    32   ar
    20    32    33   ar
    21    33    34   ar
    22    34    35   ar
    23    35    36    1
    24     1     2    1
    25     2     3    2
    26     2     4   am
    27     4     6    1
    28     6     7   ar
    29     7     8   ar
    30     8     9   ar
    31     9    10    1
    32     9    11   ar
    33    11    12   ar
    34    26    21   ar
    35    35    30   ar
    36    12     6   ar
    37    29    25   ar
    38    18    19    1
    39     4     5    1
@<TRIPOS>MOLECULE
*****
 36 39 0 0 0
SMALL
GASTEIGER

@<TRIPOS>ATOM
      1 C         140.8664  144.4270  159.9884 C.3     1  UNL1        0.2722
      2 C         141.0002  145.2199  158.7221 C.2     1  UNL1        0.2701
      3 O         142.2640  145.9776  158.4416 O.2     1  UNL1       -0.2707
      4 N         139.8702  145.2550  157.7363 N.am    1  UNL1       -0.2663
      5 H         139.0407  144.7576  157.9204 H       1  UNL1        0.1564
      6 C         140.0039  146.0478  156.4700 C.ar    1  UNL1        0.1343
      7 C         139.2450  147.3311  156.3049 C.ar    1  UNL1        0.0354
      8 C         139.3788  148.1239  155.0386 C.ar    1  UNL1        0.0158
      9 C         140.2714  147.6335  153.9374 C.ar    1  UNL1        0.0769
     10 CL        140.4052  148.4263  152.6711 Cl      1  UNL1       -0.0806
     11 C         141.0303  146.3502  154.1025 C.ar    1  UNL1        0.1116
     12 N         140.8966  145.5574  155.3688 N.ar    1  UNL1       -0.2281
     13 C         140.7206  142.9354  159.9275 C.3     1  UNL1        0.1951
     14 O         141.7532  142.1091  159.2197 O.3     1  UNL1       -0.3493
     15 C         143.5714  141.7667  161.0438 C.3     1  UNL1        0.0347
     16 C         143.1885  142.1718  159.6512 C.3     1  UNL1        0.1446
     17 C         144.2409  142.6395  158.6901 C.3     1  UNL1        0.1666
     18 O         143.8920  143.6315  157.6205 O.3     1  UNL1       -0.3795
     19 H         143.2694  143.2279  156.9957 H       1  UNL1        0.2105
     20 O         140.8784  145.1258  161.3156 O.3     1  UNL1       -0.4517
     21 C         140.0526  144.5954  162.4500 C.ar    1  UNL1        0.2312
     22 N         138.5573  144.7046  162.4043 N.ar    1  UNL1       -0.1892
     23 C         137.7316  144.1742  163.5386 C.ar    1  UNL1        0.2029
     24 N         138.4012  143.5346  164.7187 N.ar    1  UNL1       -0.2045
     25 C         139.8965  143.4254  164.7645 C.ar    1  UNL1        0.1732
     26 C         140.7222  143.9558  163.6301 C.ar    1  UNL1        0.1099
     27 C         142.1662  143.7086  163.9526 C.ar    1  UNL1        0.1283
     28 N         142.2328  143.0254  165.2863 N.ar    1  UNL1       -0.1606
     29 N         140.8300  142.8504  165.7881 N.ar    1  UNL1       -0.1936
     30 C         140.4309  142.2123  167.0856 C.ar    1  UNL1        0.1759
     31 N         140.4821  143.0048  168.3581 N.ar    1  UNL1       -0.2242
     32 C         140.0830  142.3668  169.6556 C.ar    1  UNL1        0.1006
     33 C         139.6326  140.9362  169.6807 C.ar    1  UNL1        0.0217
     34 C         139.5814  140.1437  168.4082 C.ar    1  UNL1        0.0161
     35 C         139.9805  140.7818  167.1107 C.ar    1  UNL1        0.0935
     36 CL        139.9293  139.9892  165.8382 Cl      1  UNL1       -0.0790
@<TRIPOS>BOND
     1    16    15    1
     2    16    17    1
     3    17    18    1
     4    16    14    1
     5    14    13    1
     6     1    13    1
     7     1    20    1
     8    20    21    1
     9    21    22   ar
    10    22    23   ar
    11    23    24   ar
    12    24    25   ar
    13    25    26   ar
    14    26    27   ar
    15    27    28   ar
    16    28    29   ar
    17    29    30    1
    18    30    31   ar
    19    31    32   ar
    20    32    33   ar
    21    33    34   ar
    22    34    35   ar
    23    35    36    1
    24     1     2    1
    25     2     3    2
    26     2     4   am
    27     4     6    1
    28     6     7   ar
    29     7     8   ar
    30     8     9   ar
    31     9    10    1
    32     9    11   ar
    33    11    12   ar
    34    26    21   ar
    35    35    30   ar
    36    12     6   ar
    37    29    25   ar
    38    18    19    1
    39     4     5    1
