@<TRIPOS>MOLECULE
*****
 35 38 0 0 0
SMALL
GASTEIGER

@<TRIPOS>ATOM
      1 N         141.5768  144.4511  161.6136 N.3     1  UNL1       -0.2653
      2 C         142.4411  144.8727  162.7648 C.3     1  UNL1        0.1036
      3 C         143.4046  143.8986  163.3753 C.3     1  UNL1        0.1470
      4 C         144.3682  142.9245  163.9859 C.3     1  UNL1        0.1035
      5 N         144.4674  141.5288  163.4452 N.3     1  UNL1       -0.2685
      6 C         143.6031  141.1073  162.2939 C.3     1  UNL1        0.1035
      7 C         142.6395  142.0814  161.6834 C.3     1  UNL1        0.1470
      8 C         141.6760  143.0555  161.0729 C.3     1  UNL1        0.1036
      9 O         143.5038  142.5029  162.8346 O.3     1  UNL1       -0.3530
     10 C         140.6132  145.4252  161.0030 C.3     1  UNL1        0.1202
     11 C         139.6034  146.1221  161.8659 C.3     1  UNL1        0.2226
     12 O         138.2865  145.4662  162.1584 O.3     1  UNL1       -0.4740
     13 C         138.1642  141.5644  164.3969 C.ar    1  UNL1        0.0686
     14 C         138.5100  142.8329  165.1190 C.ar    1  UNL1        0.0134
     15 C         138.5508  144.1334  164.3728 C.ar    1  UNL1        0.0376
     16 C         138.2457  144.1656  162.9045 C.ar    1  UNL1        0.1387
     17 C         137.8999  142.8972  162.1824 C.ar    1  UNL1        0.0376
     18 C         137.8591  141.5965  162.9286 C.ar    1  UNL1        0.0134
     19 N         138.0826  138.9633  165.8892 N.1     1  UNL1       -0.1908
     20 C         138.1234  140.2638  165.1431 C.1     1  UNL1        0.1004
     21 C         145.4309  140.5548  164.0557 C.3     1  UNL1        0.0737
     22 C         144.9676  139.1795  164.4354 C.3     1  UNL1        0.0362
     23 C         143.8616  139.0099  165.4344 C.3     1  UNL1        0.0929
     24 N         142.5649  139.7406  165.2489 N.3     1  UNL1       -0.1793
     25 H         141.8984  139.0667  164.8723 H       1  UNL1        0.1488
     26 S         141.9000  140.3980  166.4220 S.O2    1  UNL1        0.0602
     27 O         142.2813  139.2353  167.2895 O.2     1  UNL1       -0.1530
     28 O         141.5188  141.5607  165.5544 O.2     1  UNL1       -0.1530
     29 C         141.2352  141.0552  167.5950 C.ar    1  UNL1        0.1221
     30 C         141.6090  142.4556  167.9812 C.ar    1  UNL1        0.0222
     31 C         140.9442  143.1129  169.1543 C.ar    1  UNL1        0.0310
     32 C         139.9055  142.3698  169.9410 C.ar    1  UNL1        0.1402
     33 F         139.2406  143.0271  171.1140 F       1  UNL1       -0.2042
     34 C         139.5316  140.9694  169.5547 C.ar    1  UNL1        0.0310
     35 C         140.1965  140.3121  168.3817 C.ar    1  UNL1        0.0222
@<TRIPOS>BOND
     1    19    20    3
     2    20    13    1
     3    13    14   ar
     4    14    15   ar
     5    15    16   ar
     6    16    12    1
     7    12    11    1
     8    11    10    1
     9    10     1    1
    10     1     2    1
    11     2     3    1
    12     3     4    1
    13     4     5    1
    14     5    21    1
    15    21    22    1
    16    22    23    1
    17    23    24    1
    18    24    26    1
    19    26    27    2
    20    26    28    2
    21    26    29    1
    22    29    30   ar
    23    30    31   ar
    24    31    32   ar
    25    32    33    1
    26    32    34   ar
    27    34    35   ar
    28     5     6    1
    29     6     7    1
    30     7     8    1
    31     7     9    1
    32    16    17   ar
    33    17    18   ar
    34    18    13   ar
    35     8     1    1
    36     9     3    1
    37    35    29   ar
    38    24    25    1
@<TRIPOS>MOLECULE
*****
 35 38 0 0 0
SMALL
GASTEIGER

@<TRIPOS>ATOM
      1 N         143.8761  140.6755  163.3432 N.3     1  UNL1       -0.2653
      2 C         142.8470  140.4133  162.2839 C.3     1  UNL1        0.1036
      3 C         142.1196  141.5590  161.6450 C.3     1  UNL1        0.1470
      4 C         141.3922  142.7048  161.0061 C.3     1  UNL1        0.1035
      5 N         141.6939  144.1127  161.4265 N.3     1  UNL1       -0.2685
      6 C         142.7231  144.3748  162.4859 C.3     1  UNL1        0.1035
      7 C         143.4504  143.2291  163.1248 C.3     1  UNL1        0.1470
      8 C         144.1778  142.0834  163.7637 C.3     1  UNL1        0.1036
      9 O         142.4214  142.9669  162.0655 O.3     1  UNL1       -0.3530
     10 C         144.6035  139.5297  163.9822 C.3     1  UNL1        0.1202
     11 C         144.1772  139.0290  165.3303 C.3     1  UNL1        0.2226
     12 O         142.7272  139.0498  165.7141 O.3     1  UNL1       -0.4740
     13 C         141.1622  142.2867  168.4202 C.ar    1  UNL1        0.0686
     14 C         141.0455  142.4319  166.9317 C.ar    1  UNL1        0.0134
     15 C         141.5672  141.3530  166.0297 C.ar    1  UNL1        0.0376
     16 C         142.2055  140.1287  166.6161 C.ar    1  UNL1        0.1387
     17 C         142.3222  139.9835  168.1044 C.ar    1  UNL1        0.0376
     18 C         141.8005  141.0625  169.0065 C.ar    1  UNL1        0.0134
     19 N         140.1188  144.4446  170.2242 N.1     1  UNL1       -0.1908
     20 C         140.6405  143.3656  169.3222 C.1     1  UNL1        0.1004
     21 C         140.9666  145.2584  160.7876 C.3     1  UNL1        0.0737
     22 C         139.8078  145.8982  161.4933 C.3     1  UNL1        0.0362
     23 C         139.0923  145.1577  162.5840 C.3     1  UNL1        0.0929
     24 N         138.1126  144.0757  162.2381 N.3     1  UNL1       -0.1793
     25 H         138.1527  143.9548  161.2261 H       1  UNL1        0.1488
     26 S         138.2578  142.7109  162.8434 S.O2    1  UNL1        0.0602
     27 O         137.4740  142.1237  161.7074 O.2     1  UNL1       -0.1530
     28 O         139.0417  143.2981  163.9795 O.2     1  UNL1       -0.1530
     29 C         138.4030  141.3462  163.4487 C.ar    1  UNL1        0.1221
     30 C         138.1477  141.1441  164.9129 C.ar    1  UNL1        0.0222
     31 C         138.2929  139.7793  165.5182 C.ar    1  UNL1        0.0310
     32 C         138.6934  138.6166  164.6593 C.ar    1  UNL1        0.1402
     33 F         138.8385  137.2519  165.2645 F       1  UNL1       -0.2042
     34 C         138.9487  138.8188  163.1950 C.ar    1  UNL1        0.0310
     35 C         138.8035  140.1835  162.5897 C.ar    1  UNL1        0.0222
@<TRIPOS>BOND
     1    19    20    3
     2    20    13    1
     3    13    14   ar
     4    14    15   ar
     5    15    16   ar
     6    16    12    1
     7    12    11    1
     8    11    10    1
     9    10     1    1
    10     1     2    1
    11     2     3    1
    12     3     4    1
    13     4     5    1
    14     5    21    1
    15    21    22    1
    16    22    23    1
    17    23    24    1
    18    24    26    1
    19    26    27    2
    20    26    28    2
    21    26    29    1
    22    29    30   ar
    23    30    31   ar
    24    31    32   ar
    25    32    33    1
    26    32    34   ar
    27    34    35   ar
    28     5     6    1
    29     6     7    1
    30     7     8    1
    31     7     9    1
    32    16    17   ar
    33    17    18   ar
    34    18    13   ar
    35     8     1    1
    36     9     3    1
    37    35    29   ar
    38    24    25    1
@<TRIPOS>MOLECULE
*****
 35 38 0 0 0
SMALL
GASTEIGER

@<TRIPOS>ATOM
      1 N         139.8257  138.4978  164.4482 N.3     1  UNL1       -0.2653
      2 C         141.1159  137.7499  164.2871 C.3     1  UNL1        0.1036
      3 C         142.1436  138.2302  163.3058 C.3     1  UNL1        0.1470
      4 C         143.1714  138.7104  162.3244 C.3     1  UNL1        0.1035
      5 N         142.9089  139.9385  161.5041 N.3     1  UNL1       -0.2685
      6 C         141.6186  140.6864  161.6652 C.3     1  UNL1        0.1035
      7 C         140.5909  140.2061  162.6466 C.3     1  UNL1        0.1470
      8 C         139.5632  139.7259  163.6279 C.3     1  UNL1        0.1036
      9 O         141.8811  139.4583  162.4855 O.3     1  UNL1       -0.3530
     10 C         138.7979  138.0175  165.4296 C.3     1  UNL1        0.1202
     11 C         138.0510  139.0046  166.2767 C.3     1  UNL1        0.2226
     12 O         138.2506  139.0195  167.7634 O.3     1  UNL1       -0.4740
     13 C         141.1980  141.8753  169.6093 C.ar    1  UNL1        0.0686
     14 C         141.3654  141.4428  168.1828 C.ar    1  UNL1        0.0134
     15 C         140.3830  140.4908  167.5675 C.ar    1  UNL1        0.0376
     16 C         139.2331  139.9715  168.3787 C.ar    1  UNL1        0.1387
     17 C         139.0656  140.4040  169.8051 C.ar    1  UNL1        0.0376
     18 C         140.0481  141.3560  170.4205 C.ar    1  UNL1        0.0134
     19 N         143.1629  143.7792  170.8398 N.1     1  UNL1       -0.1908
     20 C         142.1804  142.8273  170.2246 C.1     1  UNL1        0.1004
     21 C         143.9367  140.4188  160.5227 C.3     1  UNL1        0.0737
     22 C         144.3369  141.8643  160.5029 C.3     1  UNL1        0.0362
     23 C         144.7881  142.5350  161.7664 C.3     1  UNL1        0.0929
     24 N         144.2479  143.8856  162.1327 N.3     1  UNL1       -0.1793
     25 H         144.2334  144.4391  161.2761 H       1  UNL1        0.1488
     26 S         142.8860  144.0066  162.7496 S.O2    1  UNL1        0.0602
     27 O         142.4036  144.7491  161.5389 O.2     1  UNL1       -0.1530
     28 O         143.3684  143.2641  163.9604 O.2     1  UNL1       -0.1530
     29 C         141.5241  144.1276  163.3665 C.ar    1  UNL1        0.1221
     30 C         140.4493  144.9039  162.6650 C.ar    1  UNL1        0.0222
     31 C         139.0873  145.0249  163.2818 C.ar    1  UNL1        0.0310
     32 C         138.8002  144.3697  164.6003 C.ar    1  UNL1        0.1402
     33 F         137.4384  144.4907  165.2171 F       1  UNL1       -0.2042
     34 C         139.8751  143.5934  165.3018 C.ar    1  UNL1        0.0310
     35 C         141.2370  143.4724  164.6849 C.ar    1  UNL1        0.0222
@<TRIPOS>BOND
     1    19    20    3
     2    20    13    1
     3    13    14   ar
     4    14    15   ar
     5    15    16   ar
     6    16    12    1
     7    12    11    1
     8    11    10    1
     9    10     1    1
    10     1     2    1
    11     2     3    1
    12     3     4    1
    13     4     5    1
    14     5    21    1
    15    21    22    1
    16    22    23    1
    17    23    24    1
    18    24    26    1
    19    26    27    2
    20    26    28    2
    21    26    29    1
    22    29    30   ar
    23    30    31   ar
    24    31    32   ar
    25    32    33    1
    26    32    34   ar
    27    34    35   ar
    28     5     6    1
    29     6     7    1
    30     7     8    1
    31     7     9    1
    32    16    17   ar
    33    17    18   ar
    34    18    13   ar
    35     8     1    1
    36     9     3    1
    37    35    29   ar
    38    24    25    1
@<TRIPOS>MOLECULE
*****
 35 38 0 0 0
SMALL
GASTEIGER

@<TRIPOS>ATOM
      1 N         142.1733  141.8491  167.1013 N.3     1  UNL1       -0.2653
      2 C         143.2124  142.3111  166.1232 C.3     1  UNL1        0.1036
      3 C         142.8342  143.2465  165.0133 C.3     1  UNL1        0.1470
      4 C         142.4561  144.1819  163.9033 C.3     1  UNL1        0.1035
      5 N         141.0389  144.6553  163.7714 N.3     1  UNL1       -0.2685
      6 C         139.9998  144.1932  164.7496 C.3     1  UNL1        0.1035
      7 C         140.3779  143.2578  165.8596 C.3     1  UNL1        0.1470
      8 C         140.7560  142.3224  166.9695 C.3     1  UNL1        0.1036
      9 O         141.4170  143.7198  164.8815 O.3     1  UNL1       -0.3530
     10 C         142.5514  140.9136  168.2114 C.3     1  UNL1        0.1202
     11 C         142.5476  139.4320  167.9776 C.3     1  UNL1        0.2226
     12 O         143.6273  138.8007  167.1494 O.3     1  UNL1       -0.4740
     13 C         143.1284  138.4500  162.6909 C.ar    1  UNL1        0.0686
     14 C         144.3569  139.0961  163.2596 C.ar    1  UNL1        0.0134
     15 C         144.5232  139.2130  164.7458 C.ar    1  UNL1        0.0376
     16 C         143.4610  138.6838  165.6632 C.ar    1  UNL1        0.1387
     17 C         142.2325  138.0378  165.0946 C.ar    1  UNL1        0.0376
     18 C         142.0662  137.9209  163.6084 C.ar    1  UNL1        0.0134
     19 N         142.7958  138.2163  159.7186 N.1     1  UNL1       -0.1908
     20 C         142.9621  138.3332  161.2048 C.1     1  UNL1        0.1004
     21 C         140.6608  145.5907  162.6615 C.3     1  UNL1        0.0737
     22 C         139.5436  145.2325  161.7267 C.3     1  UNL1        0.0362
     23 C         139.4603  143.8492  161.1527 C.3     1  UNL1        0.0929
     24 N         138.2353  143.0145  161.3824 N.3     1  UNL1       -0.1793
     25 H         137.9121  142.7073  160.4651 H       1  UNL1        0.1488
     26 S         138.3128  141.7908  162.2465 S.O2    1  UNL1        0.0602
     27 O         137.3066  142.3892  163.1842 O.2     1  UNL1       -0.1530
     28 O         139.3190  141.1923  161.3088 O.2     1  UNL1       -0.1530
     29 C         138.3902  140.5671  163.1105 C.ar    1  UNL1        0.1221
     30 C         138.2683  140.6920  164.6003 C.ar    1  UNL1        0.0222
     31 C         138.3457  139.4683  165.4644 C.ar    1  UNL1        0.0310
     32 C         138.5451  138.1197  164.8387 C.ar    1  UNL1        0.1402
     33 F         138.6225  136.8961  165.7027 F       1  UNL1       -0.2042
     34 C         138.6669  137.9949  163.3488 C.ar    1  UNL1        0.0310
     35 C         138.5895  139.2185  162.4848 C.ar    1  UNL1        0.0222
@<TRIPOS>BOND
     1    19    20    3
     2    20    13    1
     3    13    14   ar
     4    14    15   ar
     5    15    16   ar
     6    16    12    1
     7    12    11    1
     8    11    10    1
     9    10     1    1
    10     1     2    1
    11     2     3    1
    12     3     4    1
    13     4     5    1
    14     5    21    1
    15    21    22    1
    16    22    23    1
    17    23    24    1
    18    24    26    1
    19    26    27    2
    20    26    28    2
    21    26    29    1
    22    29    30   ar
    23    30    31   ar
    24    31    32   ar
    25    32    33    1
    26    32    34   ar
    27    34    35   ar
    28     5     6    1
    29     6     7    1
    30     7     8    1
    31     7     9    1
    32    16    17   ar
    33    17    18   ar
    34    18    13   ar
    35     8     1    1
    36     9     3    1
    37    35    29   ar
    38    24    25    1
@<TRIPOS>MOLECULE
*****
 35 38 0 0 0
SMALL
GASTEIGER

@<TRIPOS>ATOM
      1 N         143.4192  140.2591  161.1232 N.3     1  UNL1       -0.2653
      2 C         142.2245  140.5719  160.2720 C.3     1  UNL1        0.1036
      3 C         141.5066  141.8784  160.4382 C.3     1  UNL1        0.1470
      4 C         140.7887  143.1850  160.6044 C.3     1  UNL1        0.1035
      5 N         141.2656  144.1786  161.6219 N.3     1  UNL1       -0.2685
      6 C         142.4604  143.8657  162.4732 C.3     1  UNL1        0.1035
      7 C         143.1782  142.5592  162.3069 C.3     1  UNL1        0.1470
      8 C         143.8961  141.2527  162.1407 C.3     1  UNL1        0.1036
      9 O         141.9835  142.8721  161.4557 O.3     1  UNL1       -0.3530
     10 C         144.1371  138.9525  160.9570 C.3     1  UNL1        0.1202
     11 C         143.4670  137.6721  161.3588 C.3     1  UNL1        0.2226
     12 O         141.9868  137.5111  161.1771 O.3     1  UNL1       -0.4740
     13 C         139.2294  137.9092  164.7110 C.ar    1  UNL1        0.0686
     14 C         138.6822  138.0079  163.3178 C.ar    1  UNL1        0.0134
     15 C         139.6013  137.8752  162.1398 C.ar    1  UNL1        0.0376
     16 C         141.0677  137.6438  162.3550 C.ar    1  UNL1        0.1387
     17 C         141.6149  137.5451  163.7481 C.ar    1  UNL1        0.0376
     18 C         140.6958  137.6778  164.9261 C.ar    1  UNL1        0.0134
     19 N         137.3912  138.1746  167.0668 N.1     1  UNL1       -0.1908
     20 C         138.3103  138.0419  165.8889 C.1     1  UNL1        0.1004
     21 C         140.5477  145.4851  161.7882 C.3     1  UNL1        0.0737
     22 C         139.3058  145.5572  162.6264 C.3     1  UNL1        0.0362
     23 C         139.1914  144.7270  163.8704 C.3     1  UNL1        0.0929
     24 N         139.1016  143.2331  163.7694 N.3     1  UNL1       -0.1793
     25 H         139.4303  142.9807  162.8374 H       1  UNL1        0.1488
     26 S         139.8500  142.3694  164.7411 S.O2    1  UNL1        0.0602
     27 O         140.0511  141.3388  163.6700 O.2     1  UNL1       -0.1530
     28 O         139.6489  143.4000  165.8122 O.2     1  UNL1       -0.1530
     29 C         140.5983  141.5057  165.7126 C.ar    1  UNL1        0.1221
     30 C         139.9246  141.0282  166.9649 C.ar    1  UNL1        0.0222
     31 C         140.6729  140.1644  167.9365 C.ar    1  UNL1        0.0310
     32 C         142.0949  139.7781  167.6558 C.ar    1  UNL1        0.1402
     33 F         142.8432  138.9144  168.6274 F       1  UNL1       -0.2042
     34 C         142.7686  140.2557  166.4035 C.ar    1  UNL1        0.0310
     35 C         142.0203  141.1194  165.4320 C.ar    1  UNL1        0.0222
@<TRIPOS>BOND
     1    19    20    3
     2    20    13    1
     3    13    14   ar
     4    14    15   ar
     5    15    16   ar
     6    16    12    1
     7    12    11    1
     8    11    10    1
     9    10     1    1
    10     1     2    1
    11     2     3    1
    12     3     4    1
    13     4     5    1
    14     5    21    1
    15    21    22    1
    16    22    23    1
    17    23    24    1
    18    24    26    1
    19    26    27    2
    20    26    28    2
    21    26    29    1
    22    29    30   ar
    23    30    31   ar
    24    31    32   ar
    25    32    33    1
    26    32    34   ar
    27    34    35   ar
    28     5     6    1
    29     6     7    1
    30     7     8    1
    31     7     9    1
    32    16    17   ar
    33    17    18   ar
    34    18    13   ar
    35     8     1    1
    36     9     3    1
    37    35    29   ar
    38    24    25    1
@<TRIPOS>MOLECULE
*****
 35 38 0 0 0
SMALL
GASTEIGER

@<TRIPOS>ATOM
      1 N         143.7083  140.1205  164.3044 N.3     1  UNL1       -0.2653
      2 C         142.4857  139.8538  163.4774 C.3     1  UNL1        0.1036
      3 C         141.9884  140.8932  162.5171 C.3     1  UNL1        0.1470
      4 C         141.4910  141.9327  161.5568 C.3     1  UNL1        0.1035
      5 N         142.2163  143.2389  161.4235 N.3     1  UNL1       -0.2685
      6 C         143.4390  143.5056  162.2506 C.3     1  UNL1        0.1035
      7 C         143.9363  142.4662  163.2109 C.3     1  UNL1        0.1470
      8 C         144.4336  141.4267  164.1711 C.3     1  UNL1        0.1036
      9 O         142.7137  142.1994  162.3839 O.3     1  UNL1       -0.3530
     10 C         144.2057  139.0810  165.2647 C.3     1  UNL1        0.1202
     11 C         143.2450  138.3917  166.1877 C.3     1  UNL1        0.2226
     12 O         143.2728  138.6890  167.6577 O.3     1  UNL1       -0.4740
     13 C         141.2268  142.3678  169.2484 C.ar    1  UNL1        0.0686
     14 C         140.9345  141.0264  169.8528 C.ar    1  UNL1        0.0134
     15 C         141.6165  139.8002  169.3226 C.ar    1  UNL1        0.0376
     16 C         142.5908  139.9153  168.1879 C.ar    1  UNL1        0.1387
     17 C         142.8831  141.2566  167.5835 C.ar    1  UNL1        0.0376
     18 C         142.2011  142.4829  168.1137 C.ar    1  UNL1        0.0134
     19 N         139.8628  144.8203  170.3088 N.1     1  UNL1       -0.1908
     20 C         140.5448  143.5941  169.7786 C.1     1  UNL1        0.1004
     21 C         141.7191  144.2784  160.4633 C.3     1  UNL1        0.0737
     22 C         140.3367  144.8405  160.6160 C.3     1  UNL1        0.0362
     23 C         140.1083  146.0458  161.4790 C.3     1  UNL1        0.0929
     24 N         139.4808  145.8911  162.8326 N.3     1  UNL1       -0.1793
     25 H         138.5891  146.3854  162.8020 H       1  UNL1        0.1488
     26 S         139.1984  144.5218  163.3763 S.O2    1  UNL1        0.0602
     27 O         140.5181  144.5328  164.0892 O.2     1  UNL1       -0.1530
     28 O         137.8787  144.5108  162.6633 O.2     1  UNL1       -0.1530
     29 C         138.9161  143.1527  163.9199 C.ar    1  UNL1        0.1221
     30 C         137.8643  142.2945  163.2818 C.ar    1  UNL1        0.0222
     31 C         137.5820  140.9253  163.8255 C.ar    1  UNL1        0.0310
     32 C         138.3515  140.4143  165.0073 C.ar    1  UNL1        0.1402
     33 F         138.0692  139.0451  165.5510 F       1  UNL1       -0.2042
     34 C         139.4033  141.2725  165.6455 C.ar    1  UNL1        0.0310
     35 C         139.6856  142.6416  165.1018 C.ar    1  UNL1        0.0222
@<TRIPOS>BOND
     1    19    20    3
     2    20    13    1
     3    13    14   ar
     4    14    15   ar
     5    15    16   ar
     6    16    12    1
     7    12    11    1
     8    11    10    1
     9    10     1    1
    10     1     2    1
    11     2     3    1
    12     3     4    1
    13     4     5    1
    14     5    21    1
    15    21    22    1
    16    22    23    1
    17    23    24    1
    18    24    26    1
    19    26    27    2
    20    26    28    2
    21    26    29    1
    22    29    30   ar
    23    30    31   ar
    24    31    32   ar
    25    32    33    1
    26    32    34   ar
    27    34    35   ar
    28     5     6    1
    29     6     7    1
    30     7     8    1
    31     7     9    1
    32    16    17   ar
    33    17    18   ar
    34    18    13   ar
    35     8     1    1
    36     9     3    1
    37    35    29   ar
    38    24    25    1
@<TRIPOS>MOLECULE
*****
 35 38 0 0 0
SMALL
GASTEIGER

@<TRIPOS>ATOM
      1 N         138.7476  141.0446  163.3291 N.3     1  UNL1       -0.2653
      2 C         137.8302  141.8611  162.4680 C.3     1  UNL1        0.1036
      3 C         138.2626  142.2738  161.0922 C.3     1  UNL1        0.1470
      4 C         138.6950  142.6865  159.7164 C.3     1  UNL1        0.1035
      5 N         140.0448  142.2826  159.2018 N.3     1  UNL1       -0.2685
      6 C         140.9623  141.4661  160.0630 C.3     1  UNL1        0.1035
      7 C         140.5299  141.0534  161.4388 C.3     1  UNL1        0.1470
      8 C         140.0975  140.6408  162.8145 C.3     1  UNL1        0.1036
      9 O         139.6124  141.8699  160.5776 O.3     1  UNL1       -0.3530
     10 C         138.3153  140.6319  164.7049 C.3     1  UNL1        0.1202
     11 C         138.6392  139.2581  165.2123 C.3     1  UNL1        0.2226
     12 O         139.9923  138.9730  165.7937 O.3     1  UNL1       -0.4740
     13 C         141.7805  141.7861  168.8168 C.ar    1  UNL1        0.0686
     14 C         140.4010  141.2362  169.0280 C.ar    1  UNL1        0.0134
     15 C         139.8049  140.2985  168.0203 C.ar    1  UNL1        0.0376
     16 C         140.5883  139.9107  166.8014 C.ar    1  UNL1        0.1387
     17 C         141.9678  140.4605  166.5901 C.ar    1  UNL1        0.0376
     18 C         142.5639  141.3982  167.5978 C.ar    1  UNL1        0.0134
     19 N         142.9726  143.6614  170.8321 N.1     1  UNL1       -0.1908
     20 C         142.3766  142.7237  169.8244 C.1     1  UNL1        0.1004
     21 C         140.4772  142.6953  157.8261 C.3     1  UNL1        0.0737
     22 C         141.4114  143.8556  157.6500 C.3     1  UNL1        0.0362
     23 C         142.1361  144.4215  158.8351 C.3     1  UNL1        0.0929
     24 N         141.4554  145.4199  159.7238 N.3     1  UNL1       -0.1793
     25 H         140.5823  145.6769  159.2632 H       1  UNL1        0.1488
     26 S         141.1082  145.0528  161.1362 S.O2    1  UNL1        0.0602
     27 O         142.4659  144.4393  161.3103 O.2     1  UNL1       -0.1530
     28 O         139.7506  145.6663  160.9620 O.2     1  UNL1       -0.1530
     29 C         140.7611  144.6857  162.5485 C.ar    1  UNL1        0.1221
     30 C         141.7380  143.9129  163.3842 C.ar    1  UNL1        0.0222
     31 C         141.3909  143.5458  164.7966 C.ar    1  UNL1        0.0310
     32 C         140.0669  143.9514  165.3732 C.ar    1  UNL1        0.1402
     33 F         139.7198  143.5843  166.7855 F       1  UNL1       -0.2042
     34 C         139.0900  144.7242  164.5374 C.ar    1  UNL1        0.0310
     35 C         139.4371  145.0913  163.1251 C.ar    1  UNL1        0.0222
@<TRIPOS>BOND
     1    19    20    3
     2    20    13    1
     3    13    14   ar
     4    14    15   ar
     5    15    16   ar
     6    16    12    1
     7    12    11    1
     8    11    10    1
     9    10     1    1
    10     1     2    1
    11     2     3    1
    12     3     4    1
    13     4     5    1
    14     5    21    1
    15    21    22    1
    16    22    23    1
    17    23    24    1
    18    24    26    1
    19    26    27    2
    20    26    28    2
    21    26    29    1
    22    29    30   ar
    23    30    31   ar
    24    31    32   ar
    25    32    33    1
    26    32    34   ar
    27    34    35   ar
    28     5     6    1
    29     6     7    1
    30     7     8    1
    31     7     9    1
    32    16    17   ar
    33    17    18   ar
    34    18    13   ar
    35     8     1    1
    36     9     3    1
    37    35    29   ar
    38    24    25    1
@<TRIPOS>MOLECULE
*****
 35 38 0 0 0
SMALL
GASTEIGER

@<TRIPOS>ATOM
      1 N         139.1394  139.4510  163.4555 N.3     1  UNL1       -0.2653
      2 C         138.0231  140.4308  163.2470 C.3     1  UNL1        0.1036
      3 C         138.2411  141.6460  162.3951 C.3     1  UNL1        0.1470
      4 C         138.4591  142.8613  161.5432 C.3     1  UNL1        0.1035
      5 N         139.7936  143.0965  160.8998 N.3     1  UNL1       -0.2685
      6 C         140.9099  142.1166  161.1083 C.3     1  UNL1        0.1035
      7 C         140.6919  140.9014  161.9602 C.3     1  UNL1        0.1470
      8 C         140.4738  139.6862  162.8121 C.3     1  UNL1        0.1036
      9 O         139.5755  141.8813  161.7517 O.3     1  UNL1       -0.3530
     10 C         138.9214  138.2357  164.3075 C.3     1  UNL1        0.1202
     11 C         139.2909  138.2626  165.7610 C.3     1  UNL1        0.2226
     12 O         139.0386  139.4962  166.5763 O.3     1  UNL1       -0.4740
     13 C         142.4655  141.5935  168.6030 C.ar    1  UNL1        0.0686
     14 C         142.5350  140.1169  168.3482 C.ar    1  UNL1        0.0134
     15 C         141.3928  139.4178  167.6726 C.ar    1  UNL1        0.0376
     16 C         140.1809  140.1953  167.2518 C.ar    1  UNL1        0.1387
     17 C         140.1114  141.6718  167.5067 C.ar    1  UNL1        0.0376
     18 C         141.2537  142.3710  168.1823 C.ar    1  UNL1        0.0134
     19 N         144.7501  142.9917  169.9542 N.1     1  UNL1       -0.1908
     20 C         143.6078  142.2926  169.2786 C.1     1  UNL1        0.1004
     21 C         140.0116  144.3117  160.0479 C.3     1  UNL1        0.0737
     22 C         140.5935  145.5559  160.6509 C.3     1  UNL1        0.0362
     23 C         140.3502  145.8732  162.0966 C.3     1  UNL1        0.0929
     24 N         141.5030  145.9408  163.0539 N.3     1  UNL1       -0.1793
     25 H         141.1288  146.2733  163.9425 H       1  UNL1        0.1488
     26 S         142.3014  144.7070  163.3548 S.O2    1  UNL1        0.0602
     27 O         141.0917  144.0764  163.9784 O.2     1  UNL1       -0.1530
     28 O         143.5111  145.3376  162.7312 O.2     1  UNL1       -0.1530
     29 C         143.0996  143.4732  163.6557 C.ar    1  UNL1        0.1221
     30 C         142.6015  142.4865  164.6697 C.ar    1  UNL1        0.0222
     31 C         143.3998  141.2527  164.9707 C.ar    1  UNL1        0.0310
     32 C         144.6962  141.0056  164.2577 C.ar    1  UNL1        0.1402
     33 F         145.4944  139.7719  164.5586 F       1  UNL1       -0.2042
     34 C         145.1943  141.9925  163.2436 C.ar    1  UNL1        0.0310
     35 C         144.3960  143.2262  162.9427 C.ar    1  UNL1        0.0222
@<TRIPOS>BOND
     1    19    20    3
     2    20    13    1
     3    13    14   ar
     4    14    15   ar
     5    15    16   ar
     6    16    12    1
     7    12    11    1
     8    11    10    1
     9    10     1    1
    10     1     2    1
    11     2     3    1
    12     3     4    1
    13     4     5    1
    14     5    21    1
    15    21    22    1
    16    22    23    1
    17    23    24    1
    18    24    26    1
    19    26    27    2
    20    26    28    2
    21    26    29    1
    22    29    30   ar
    23    30    31   ar
    24    31    32   ar
    25    32    33    1
    26    32    34   ar
    27    34    35   ar
    28     5     6    1
    29     6     7    1
    30     7     8    1
    31     7     9    1
    32    16    17   ar
    33    17    18   ar
    34    18    13   ar
    35     8     1    1
    36     9     3    1
    37    35    29   ar
    38    24    25    1
@<TRIPOS>MOLECULE
*****
 35 38 0 0 0
SMALL
GASTEIGER

@<TRIPOS>ATOM
      1 N         143.0797  140.2007  160.6807 N.3     1  UNL1       -0.2653
      2 C         141.7175  140.3082  160.0621 C.3     1  UNL1        0.1036
      3 C         141.0174  141.6340  160.0155 C.3     1  UNL1        0.1470
      4 C         140.3173  142.9598  159.9689 C.3     1  UNL1        0.1035
      5 N         140.9796  144.1781  160.5409 N.3     1  UNL1       -0.2685
      6 C         142.3419  144.0706  161.1595 C.3     1  UNL1        0.1035
      7 C         143.0419  142.7448  161.2061 C.3     1  UNL1        0.1470
      8 C         143.7419  141.4191  161.2527 C.3     1  UNL1        0.1036
      9 O         141.6797  142.8523  160.5875 O.3     1  UNL1       -0.3530
     10 C         143.7798  138.8749  160.7273 C.3     1  UNL1        0.1202
     11 C         143.7106  138.0334  161.9671 C.3     1  UNL1        0.2226
     12 O         142.4932  138.0854  162.8419 O.3     1  UNL1       -0.4740
     13 C         142.5687  140.4596  166.6639 C.ar    1  UNL1        0.0686
     14 C         142.2217  141.1332  165.3693 C.ar    1  UNL1        0.0134
     15 C         142.1966  140.3418  164.0953 C.ar    1  UNL1        0.0376
     16 C         142.5184  138.8768  164.1159 C.ar    1  UNL1        0.1387
     17 C         142.8653  138.2033  165.4105 C.ar    1  UNL1        0.0376
     18 C         142.8904  138.9947  166.6845 C.ar    1  UNL1        0.0134
     19 N         142.6190  142.0424  169.2118 N.1     1  UNL1       -0.1908
     20 C         142.5938  141.2510  167.9379 C.1     1  UNL1        0.1004
     21 C         140.2795  145.5039  160.4943 C.3     1  UNL1        0.0737
     22 C         139.7257  146.1043  161.7524 C.3     1  UNL1        0.0362
     23 C         139.2208  145.2142  162.8491 C.3     1  UNL1        0.0929
     24 N         138.1960  144.1611  162.5482 N.3     1  UNL1       -0.1793
     25 H         138.1504  144.0761  161.5328 H       1  UNL1        0.1488
     26 S         138.3649  142.7732  163.0917 S.O2    1  UNL1        0.0602
     27 O         139.3595  143.2855  164.0908 O.2     1  UNL1       -0.1530
     28 O         137.3704  142.2608  162.0926 O.2     1  UNL1       -0.1530
     29 C         138.5339  141.3853  163.6351 C.ar    1  UNL1        0.1221
     30 C         138.7064  140.2282  162.6964 C.ar    1  UNL1        0.0222
     31 C         138.8754  138.8403  163.2399 C.ar    1  UNL1        0.0310
     32 C         138.8719  138.6096  164.7220 C.ar    1  UNL1        0.1402
     33 F         139.0408  137.2218  165.2655 F       1  UNL1       -0.2042
     34 C         138.6994  139.7669  165.6608 C.ar    1  UNL1        0.0310
     35 C         138.5304  141.1547  165.1173 C.ar    1  UNL1        0.0222
@<TRIPOS>BOND
     1    19    20    3
     2    20    13    1
     3    13    14   ar
     4    14    15   ar
     5    15    16   ar
     6    16    12    1
     7    12    11    1
     8    11    10    1
     9    10     1    1
    10     1     2    1
    11     2     3    1
    12     3     4    1
    13     4     5    1
    14     5    21    1
    15    21    22    1
    16    22    23    1
    17    23    24    1
    18    24    26    1
    19    26    27    2
    20    26    28    2
    21    26    29    1
    22    29    30   ar
    23    30    31   ar
    24    31    32   ar
    25    32    33    1
    26    32    34   ar
    27    34    35   ar
    28     5     6    1
    29     6     7    1
    30     7     8    1
    31     7     9    1
    32    16    17   ar
    33    17    18   ar
    34    18    13   ar
    35     8     1    1
    36     9     3    1
    37    35    29   ar
    38    24    25    1
