@<TRIPOS>MOLECULE
*****
 44 49 0 0 0
SMALL
GASTEIGER

@<TRIPOS>ATOM
      1 C         143.8154  142.8026  162.1219 C.ar    1  UNL1        0.1066
      2 C         144.4446  141.6767  162.8876 C.ar    1  UNL1        0.1093
      3 N         144.4257  141.6869  164.3874 N.ar    1  UNL1       -0.2118
      4 C         143.7776  142.8232  165.1216 C.ar    1  UNL1        0.2218
      5 N         143.1485  143.9492  164.3559 N.ar    1  UNL1       -0.1986
      6 C         143.1674  143.9389  162.8560 C.ar    1  UNL1        0.1377
      7 C         144.5931  142.6037  158.3245 C.ar    1  UNL1        0.1804
      8 N         143.1336  142.9493  158.3037 N.ar    1  UNL1       -0.0602
      9 O         142.6646  143.0659  159.7237 O.2     1  UNL1       -0.3326
     10 C         143.8343  142.7923  160.6221 C.ar    1  UNL1        0.2639
     11 N         145.0261  142.5067  159.7573 N.ar    1  UNL1       -0.1910
     12 C         148.0858  141.7579  153.5196 C.3     1  UNL1        0.0896
     13 N         147.2126  141.9694  154.7208 N.3     1  UNL1       -0.2715
     14 C         147.8164  142.4257  156.0160 C.3     1  UNL1        0.0726
     15 C         146.9432  142.6371  157.2171 C.3     1  UNL1        0.0250
     16 C         145.4663  142.3923  157.1232 C.3     1  UNL1        0.0648
     17 C         144.8626  141.9360  155.8281 C.3     1  UNL1        0.0250
     18 C         145.7357  141.7246  154.6269 C.3     1  UNL1        0.0726
     19 N         143.7588  142.8335  166.6214 N.pl3   1  UNL1       -0.2825
     20 H         144.4792  143.2829  167.1197 H       1  UNL1        0.1551
     21 C         142.6422  142.1590  167.3621 C.ar    1  UNL1        0.0503
     22 C         142.5657  142.2592  168.8568 C.ar    1  UNL1        0.0149
     23 C         141.4492  141.5847  169.5974 C.ar    1  UNL1        0.0075
     24 C         140.4092  140.8102  168.8433 C.ar    1  UNL1        0.0750
     25 C         140.4858  140.7100  167.3486 C.ar    1  UNL1        0.0211
     26 C         141.6023  141.3845  166.6080 C.ar    1  UNL1        0.0139
     27 C         139.3254  139.8835  166.8794 C.3     1  UNL1        0.1553
     28 C         139.9017  140.1323  165.5171 C.3     1  UNL1        0.0484
     29 C         138.2855  139.1089  166.1253 C.3     1  UNL1        0.0484
     30 O         138.5316  139.4727  168.0841 O.3     1  UNL1       -0.4485
     31 C         139.2015  140.0454  169.2979 C.2     1  UNL1        0.3411
     32 O         138.7439  139.8821  170.7170 O.2     1  UNL1       -0.2449
     33 N         142.5382  145.0648  162.0903 N.pl3   1  UNL1       -0.3138
     34 H         143.0794  145.8438  161.8266 H       1  UNL1        0.1485
     35 CA        141.0842  145.0039  161.7262 C.3     1  UNL1        0.1227
     36 C         140.0908  144.4395  162.6981 C.ar    1  UNL1       -0.0021
     37 C         139.3443  143.1825  162.3625 C.ar    1  UNL1       -0.0026
     38 C         138.3508  142.6181  163.3344 C.ar    1  UNL1       -0.0003
     39 C         138.1039  143.3107  164.6417 C.ar    1  UNL1       -0.0000
     40 C         138.8503  144.5678  164.9773 C.ar    1  UNL1       -0.0003
     41 C         139.8438  145.1322  164.0055 C.ar    1  UNL1       -0.0026
     42 C         140.6238  145.5074  160.3904 C.3     1  UNL1        0.1611
     43 O         141.6116  145.6891  159.2762 O.3     1  UNL1       -0.3799
     44 H         142.2357  146.3942  159.5092 H       1  UNL1        0.2105
@<TRIPOS>BOND
     1    12    13    1
     2    13    14    1
     3    14    15    1
     4    15    16    1
     5    16     7    1
     6     7     8   ar
     7     8     9   ar
     8     9    10   ar
     9    10     1    1
    10     1     2   ar
    11     2     3   ar
    12     3     4   ar
    13     4    19    1
    14    19    21    1
    15    21    22   ar
    16    22    23   ar
    17    23    24   ar
    18    24    25   ar
    19    25    26   ar
    20    25    27    1
    21    27    28    1
    22    27    29    1
    23    27    30    1
    24    30    31    1
    25    31    32    2
    26     4     5   ar
    27     5     6   ar
    28     6    33    1
    29    33    35    1
    30    35    42    1
    31    42    43    1
    32    35    36    1
    33    36    37   ar
    34    37    38   ar
    35    38    39   ar
    36    39    40   ar
    37    40    41   ar
    38    10    11   ar
    39    16    17    1
    40    17    18    1
    41    18    13    1
    42    11     7   ar
    43     6     1   ar
    44    41    36   ar
    45    26    21   ar
    46    31    24    1
    47    19    20    1
    48    33    34    1
    49    43    44    1
@<TRIPOS>MOLECULE
*****
 44 49 0 0 0
SMALL
GASTEIGER

@<TRIPOS>ATOM
      1 C         143.3707  138.6198  162.5366 C.ar    1  UNL1        0.1066
      2 C         144.5552  139.1604  163.2814 C.ar    1  UNL1        0.1093
      3 N         144.5936  139.0934  164.7794 N.ar    1  UNL1       -0.2118
      4 C         143.4476  138.4857  165.5326 C.ar    1  UNL1        0.2218
      5 N         142.2631  137.9450  164.7878 N.ar    1  UNL1       -0.1986
      6 C         142.2247  138.0121  163.2898 C.ar    1  UNL1        0.1377
      7 C         142.8420  138.1764  158.7171 C.ar    1  UNL1        0.1804
      8 N         143.7041  139.4035  158.7498 N.ar    1  UNL1       -0.0602
      9 O         144.0071  139.7189  160.1846 O.2     1  UNL1       -0.3326
     10 C         143.3322  138.6868  161.0386 C.ar    1  UNL1        0.2639
     11 N         142.6122  137.7335  160.1316 N.ar    1  UNL1       -0.1910
     12 C         140.6905  135.5082  153.7923 C.3     1  UNL1        0.0896
     13 N         141.2284  136.1753  155.0235 N.3     1  UNL1       -0.2715
     14 C         142.6748  136.0199  155.3896 C.3     1  UNL1        0.0726
     15 C         143.2126  136.6870  156.6208 C.3     1  UNL1        0.0250
     16 C         142.3041  137.5094  157.4859 C.3     1  UNL1        0.0648
     17 C         140.8578  137.6647  157.1198 C.3     1  UNL1        0.0250
     18 C         140.3199  136.9976  155.8886 C.3     1  UNL1        0.0726
     19 N         143.4860  138.4186  167.0306 N.pl3   1  UNL1       -0.2825
     20 H         144.0211  137.7242  167.4787 H       1  UNL1        0.1551
     21 C         142.7093  139.4096  167.8459 C.ar    1  UNL1        0.0503
     22 C         142.6428  139.2656  169.3375 C.ar    1  UNL1        0.0149
     23 C         141.8661  140.2565  170.1527 C.ar    1  UNL1        0.0075
     24 C         141.1558  141.3915  169.4764 C.ar    1  UNL1        0.0750
     25 C         141.2223  141.5355  167.9848 C.ar    1  UNL1        0.0211
     26 C         141.9991  140.5446  167.1696 C.ar    1  UNL1        0.0139
     27 C         140.4264  142.7474  167.6003 C.3     1  UNL1        0.1553
     28 C         140.8364  142.3797  166.2050 C.3     1  UNL1        0.0484
     29 C         139.7162  143.8824  166.9239 C.3     1  UNL1        0.0484
     30 O         139.8680  143.3523  168.8541 O.3     1  UNL1       -0.4485
     31 C         140.3188  142.5144  170.0137 C.2     1  UNL1        0.3411
     32 O         139.9903  142.7567  171.4571 O.2     1  UNL1       -0.2449
     33 N         141.0402  137.4715  162.5450 N.pl3   1  UNL1       -0.3138
     34 H         141.1383  136.6735  161.9768 H       1  UNL1        0.1485
     35 CA        139.7062  138.1467  162.6659 C.3     1  UNL1        0.1227
     36 C         139.0842  138.3421  164.0168 C.ar    1  UNL1       -0.0021
     37 C         138.7513  139.7238  164.4964 C.ar    1  UNL1       -0.0026
     38 C         138.1294  139.9192  165.8473 C.ar    1  UNL1       -0.0003
     39 C         137.8403  138.7330  166.7186 C.ar    1  UNL1       -0.0000
     40 C         138.1731  137.3512  166.2390 C.ar    1  UNL1       -0.0003
     41 C         138.7951  137.1558  164.8881 C.ar    1  UNL1       -0.0026
     42 C         138.9942  138.6265  161.4359 C.3     1  UNL1        0.1611
     43 O         139.3931  138.1053  160.0871 O.3     1  UNL1       -0.3799
     44 H         140.2932  138.4012  159.8794 H       1  UNL1        0.2105
@<TRIPOS>BOND
     1    12    13    1
     2    13    14    1
     3    14    15    1
     4    15    16    1
     5    16     7    1
     6     7     8   ar
     7     8     9   ar
     8     9    10   ar
     9    10     1    1
    10     1     2   ar
    11     2     3   ar
    12     3     4   ar
    13     4    19    1
    14    19    21    1
    15    21    22   ar
    16    22    23   ar
    17    23    24   ar
    18    24    25   ar
    19    25    26   ar
    20    25    27    1
    21    27    28    1
    22    27    29    1
    23    27    30    1
    24    30    31    1
    25    31    32    2
    26     4     5   ar
    27     5     6   ar
    28     6    33    1
    29    33    35    1
    30    35    42    1
    31    42    43    1
    32    35    36    1
    33    36    37   ar
    34    37    38   ar
    35    38    39   ar
    36    39    40   ar
    37    40    41   ar
    38    10    11   ar
    39    16    17    1
    40    17    18    1
    41    18    13    1
    42    11     7   ar
    43     6     1   ar
    44    41    36   ar
    45    26    21   ar
    46    31    24    1
    47    19    20    1
    48    33    34    1
    49    43    44    1
@<TRIPOS>MOLECULE
*****
 44 49 0 0 0
SMALL
GASTEIGER

@<TRIPOS>ATOM
      1 C         142.7755  142.1499  159.8027 C.ar    1  UNL1        0.1066
      2 C         141.6328  143.0639  159.4730 C.ar    1  UNL1        0.1093
      3 N         140.6973  143.5156  160.5551 N.ar    1  UNL1       -0.2118
      4 C         140.9046  143.0532  161.9669 C.ar    1  UNL1        0.2218
      5 N         142.0474  142.1391  162.2966 N.ar    1  UNL1       -0.1986
      6 C         142.9828  141.6875  161.2145 C.ar    1  UNL1        0.1377
      7 C         145.3225  141.7177  156.9060 C.ar    1  UNL1        0.1804
      8 N         144.9782  140.2886  157.2048 N.ar    1  UNL1       -0.0602
      9 O         143.9822  140.2766  158.3263 O.2     1  UNL1       -0.3326
     10 C         143.7109  141.6982  158.7206 C.ar    1  UNL1        0.2639
     11 N         144.5392  142.5888  157.8428 N.ar    1  UNL1       -0.1910
     12 C         149.1591  143.6161  152.7015 C.3     1  UNL1        0.0896
     13 N         148.1999  143.1415  153.7526 N.3     1  UNL1       -0.2715
     14 C         148.7083  142.3914  154.9481 C.3     1  UNL1        0.0726
     15 C         147.7491  141.9168  155.9992 C.3     1  UNL1        0.0250
     16 C         146.2816  142.1923  155.8548 C.3     1  UNL1        0.0648
     17 C         145.7734  142.9423  154.6594 C.3     1  UNL1        0.0250
     18 C         146.7325  143.4169  153.6083 C.3     1  UNL1        0.0726
     19 N         139.9692  143.5048  163.0490 N.pl3   1  UNL1       -0.2825
     20 H         139.3495  144.2517  162.8839 H       1  UNL1        0.1551
     21 C         139.9780  142.8185  164.3828 C.ar    1  UNL1        0.0503
     22 C         140.7111  143.4335  165.5379 C.ar    1  UNL1        0.0149
     23 C         140.7199  142.7472  166.8716 C.ar    1  UNL1        0.0075
     24 C         139.9957  141.4458  167.0502 C.ar    1  UNL1        0.0750
     25 C         139.2626  140.8308  165.8951 C.ar    1  UNL1        0.0211
     26 C         139.2538  141.5171  164.5614 C.ar    1  UNL1        0.0139
     27 C         138.6432  139.5493  166.3686 C.3     1  UNL1        0.1553
     28 C         138.1415  139.4543  164.9582 C.3     1  UNL1        0.0484
     29 C         137.9189  138.2480  166.5472 C.3     1  UNL1        0.0484
     30 O         138.9935  139.3723  167.8164 O.3     1  UNL1       -0.4485
     31 C         139.8294  140.5444  168.2377 C.2     1  UNL1        0.3411
     32 O         140.3989  140.7748  169.6061 O.2     1  UNL1       -0.2449
     33 N         144.1255  140.7734  161.5441 N.pl3   1  UNL1       -0.3138
     34 H         144.7518  140.4939  160.8379 H       1  UNL1        0.1485
     35 CA        144.3140  140.2853  162.9500 C.3     1  UNL1        0.1227
     36 C         143.3154  139.3454  163.5577 C.ar    1  UNL1       -0.0021
     37 C         143.0930  139.3439  165.0411 C.ar    1  UNL1       -0.0026
     38 C         142.0943  138.4041  165.6489 C.ar    1  UNL1       -0.0003
     39 C         141.3181  137.4656  164.7732 C.ar    1  UNL1       -0.0000
     40 C         141.5405  137.4671  163.2898 C.ar    1  UNL1       -0.0003
     41 C         142.5391  138.4070  162.6820 C.ar    1  UNL1       -0.0026
     42 C         145.5010  140.7371  163.7480 C.3     1  UNL1        0.1611
     43 O         146.3779  141.8383  163.2299 O.3     1  UNL1       -0.3799
     44 H         146.8279  141.5411  162.4237 H       1  UNL1        0.2105
@<TRIPOS>BOND
     1    12    13    1
     2    13    14    1
     3    14    15    1
     4    15    16    1
     5    16     7    1
     6     7     8   ar
     7     8     9   ar
     8     9    10   ar
     9    10     1    1
    10     1     2   ar
    11     2     3   ar
    12     3     4   ar
    13     4    19    1
    14    19    21    1
    15    21    22   ar
    16    22    23   ar
    17    23    24   ar
    18    24    25   ar
    19    25    26   ar
    20    25    27    1
    21    27    28    1
    22    27    29    1
    23    27    30    1
    24    30    31    1
    25    31    32    2
    26     4     5   ar
    27     5     6   ar
    28     6    33    1
    29    33    35    1
    30    35    42    1
    31    42    43    1
    32    35    36    1
    33    36    37   ar
    34    37    38   ar
    35    38    39   ar
    36    39    40   ar
    37    40    41   ar
    38    10    11   ar
    39    16    17    1
    40    17    18    1
    41    18    13    1
    42    11     7   ar
    43     6     1   ar
    44    41    36   ar
    45    26    21   ar
    46    31    24    1
    47    19    20    1
    48    33    34    1
    49    43    44    1
@<TRIPOS>MOLECULE
*****
 44 49 0 0 0
SMALL
GASTEIGER

@<TRIPOS>ATOM
      1 C         143.6348  142.2128  159.7364 C.ar    1  UNL1        0.1066
      2 C         142.9554  143.5482  159.6641 C.ar    1  UNL1        0.1093
      3 N         142.2207  144.0815  160.8581 N.ar    1  UNL1       -0.2118
      4 C         142.1655  143.2796  162.1246 C.ar    1  UNL1        0.2218
      5 N         142.8450  141.9442  162.1970 N.ar    1  UNL1       -0.1986
      6 C         143.5797  141.4109  161.0028 C.ar    1  UNL1        0.1377
      7 C         145.7801  141.5417  156.5722 C.ar    1  UNL1        0.1804
      8 N         145.2198  140.1757  156.8376 N.ar    1  UNL1       -0.0602
      9 O         144.3480  140.2609  158.0552 O.2     1  UNL1       -0.3326
     10 C         144.3695  141.6795  158.5424 C.ar    1  UNL1        0.2639
     11 N         145.2546  142.4710  157.6259 N.ar    1  UNL1       -0.1910
     12 C         149.4750  143.0271  152.0842 C.3     1  UNL1        0.0896
     13 N         148.5513  142.6557  153.2062 N.3     1  UNL1       -0.2715
     14 C         147.0682  142.8040  153.0370 C.3     1  UNL1        0.0726
     15 C         146.1445  142.4326  154.1590 C.3     1  UNL1        0.0250
     16 C         146.7038  141.9130  155.4502 C.3     1  UNL1        0.0648
     17 C         148.1869  141.7648  155.6194 C.3     1  UNL1        0.0250
     18 C         149.1106  142.1361  154.4974 C.3     1  UNL1        0.0726
     19 N         141.4309  143.8129  163.3187 N.pl3   1  UNL1       -0.2825
     20 H         141.2522  144.7780  163.3960 H       1  UNL1        0.1551
     21 C         140.9685  142.8759  164.3949 C.ar    1  UNL1        0.0503
     22 C         139.6557  142.1638  164.2563 C.ar    1  UNL1        0.0149
     23 C         139.1934  141.2269  165.3325 C.ar    1  UNL1        0.0075
     24 C         140.0439  141.0020  166.5474 C.ar    1  UNL1        0.0750
     25 C         141.3568  141.7141  166.6861 C.ar    1  UNL1        0.0211
     26 C         141.8191  142.6510  165.6098 C.ar    1  UNL1        0.0139
     27 C         141.9756  141.2962  167.9870 C.3     1  UNL1        0.1553
     28 C         143.0839  142.2196  167.5756 C.3     1  UNL1        0.0484
     29 C         142.8262  141.0713  169.2019 C.3     1  UNL1        0.0484
     30 O         141.0452  140.3258  168.6524 O.3     1  UNL1       -0.4485
     31 C         139.8513  140.1440  167.7627 C.2     1  UNL1        0.3411
     32 O         138.6720  139.2595  168.0396 O.2     1  UNL1       -0.2449
     33 N         144.2591  140.0755  161.0751 N.pl3   1  UNL1       -0.3138
     34 H         145.1991  139.9858  160.7966 H       1  UNL1        0.1485
     35 CA        143.5063  138.8769  161.5719 C.3     1  UNL1        0.1227
     36 C         143.2399  138.7137  163.0390 C.ar    1  UNL1       -0.0021
     37 C         144.2588  139.1685  164.0414 C.ar    1  UNL1       -0.0026
     38 C         143.9924  139.0053  165.5085 C.ar    1  UNL1       -0.0003
     39 C         142.7071  138.3872  165.9732 C.ar    1  UNL1       -0.0000
     40 C         141.6882  137.9323  164.9707 C.ar    1  UNL1       -0.0003
     41 C         141.9546  138.0955  163.5036 C.ar    1  UNL1       -0.0026
     42 C         143.0200  137.8416  160.6016 C.3     1  UNL1        0.1611
     43 O         143.3068  137.9929  159.1370 O.3     1  UNL1       -0.3799
     44 H         142.8377  138.7697  158.7942 H       1  UNL1        0.2105
@<TRIPOS>BOND
     1    12    13    1
     2    13    14    1
     3    14    15    1
     4    15    16    1
     5    16     7    1
     6     7     8   ar
     7     8     9   ar
     8     9    10   ar
     9    10     1    1
    10     1     2   ar
    11     2     3   ar
    12     3     4   ar
    13     4    19    1
    14    19    21    1
    15    21    22   ar
    16    22    23   ar
    17    23    24   ar
    18    24    25   ar
    19    25    26   ar
    20    25    27    1
    21    27    28    1
    22    27    29    1
    23    27    30    1
    24    30    31    1
    25    31    32    2
    26     4     5   ar
    27     5     6   ar
    28     6    33    1
    29    33    35    1
    30    35    42    1
    31    42    43    1
    32    35    36    1
    33    36    37   ar
    34    37    38   ar
    35    38    39   ar
    36    39    40   ar
    37    40    41   ar
    38    10    11   ar
    39    16    17    1
    40    17    18    1
    41    18    13    1
    42    11     7   ar
    43     6     1   ar
    44    41    36   ar
    45    26    21   ar
    46    31    24    1
    47    19    20    1
    48    33    34    1
    49    43    44    1
@<TRIPOS>MOLECULE
*****
 44 49 0 0 0
SMALL
GASTEIGER

@<TRIPOS>ATOM
      1 C         143.2501  138.6637  162.7785 C.ar    1  UNL1        0.1066
      2 C         144.3812  139.3294  163.5048 C.ar    1  UNL1        0.1093
      3 N         144.4824  139.2190  164.9973 N.ar    1  UNL1       -0.2118
      4 C         143.4524  138.4429  165.7635 C.ar    1  UNL1        0.2218
      5 N         142.3214  137.7772  165.0372 N.ar    1  UNL1       -0.1986
      6 C         142.2202  137.8877  163.5446 C.ar    1  UNL1        0.1377
      7 C         143.4794  139.5151  158.9986 C.ar    1  UNL1        0.1804
      8 N         142.5073  138.3728  158.9799 N.ar    1  UNL1       -0.0602
      9 O         142.3031  137.9149  160.3937 O.2     1  UNL1       -0.3326
     10 C         143.1490  138.7741  161.2860 C.ar    1  UNL1        0.2639
     11 N         143.8760  139.7630  160.4238 N.ar    1  UNL1       -0.1910
     12 C         145.4377  142.5579  154.2124 C.3     1  UNL1        0.0896
     13 N         144.9481  141.7972  155.4090 N.3     1  UNL1       -0.2715
     14 C         144.2930  140.4596  155.2308 C.3     1  UNL1        0.0726
     15 C         143.8034  139.6990  156.4273 C.3     1  UNL1        0.0250
     16 C         143.9690  140.2758  157.8021 C.3     1  UNL1        0.0648
     17 C         144.6241  141.6133  157.9802 C.3     1  UNL1        0.0250
     18 C         145.1136  142.3741  156.7837 C.3     1  UNL1        0.0726
     19 N         143.5536  138.3325  167.2560 N.pl3   1  UNL1       -0.2825
     20 H         144.1227  137.6386  167.6608 H       1  UNL1        0.1551
     21 C         142.7877  139.2794  168.1317 C.ar    1  UNL1        0.0503
     22 C         142.7168  139.0420  169.6111 C.ar    1  UNL1        0.0149
     23 C         141.9510  139.9889  170.4868 C.ar    1  UNL1        0.0075
     24 C         141.2560  141.1732  169.8830 C.ar    1  UNL1        0.0750
     25 C         141.3268  141.4106  168.4037 C.ar    1  UNL1        0.0211
     26 C         142.0927  140.4637  167.5280 C.ar    1  UNL1        0.0139
     27 C         140.5465  142.6541  168.0959 C.3     1  UNL1        0.1553
     28 C         140.9543  142.3705  166.6805 C.3     1  UNL1        0.0484
     29 C         139.8515  143.8384  167.4922 C.3     1  UNL1        0.0484
     30 O         139.9934  143.1853  169.3851 O.3     1  UNL1       -0.4485
     31 C         140.4319  142.2700  170.4896 C.2     1  UNL1        0.3411
     32 O         140.1038  142.4245  171.9451 O.2     1  UNL1       -0.2449
     33 N         141.0892  137.2220  162.8182 N.pl3   1  UNL1       -0.3138
     34 H         141.2535  136.4044  162.2951 H       1  UNL1        0.1485
     35 CA        139.7077  137.8021  162.8890 C.3     1  UNL1        0.1227
     36 C         139.1132  138.1636  164.2179 C.ar    1  UNL1       -0.0021
     37 C         138.6164  137.0860  165.1354 C.ar    1  UNL1       -0.0026
     38 C         138.0219  137.4474  166.4643 C.ar    1  UNL1       -0.0003
     39 C         137.9243  138.8866  166.8757 C.ar    1  UNL1       -0.0000
     40 C         138.4212  139.9643  165.9583 C.ar    1  UNL1       -0.0003
     41 C         139.0157  139.6028  164.6294 C.ar    1  UNL1       -0.0026
     42 C         138.9207  138.0207  161.6310 C.3     1  UNL1        0.1611
     43 O         137.4627  137.6708  161.5880 O.3     1  UNL1       -0.3799
     44 H         137.3577  136.7109  161.6803 H       1  UNL1        0.2105
@<TRIPOS>BOND
     1    12    13    1
     2    13    14    1
     3    14    15    1
     4    15    16    1
     5    16     7    1
     6     7     8   ar
     7     8     9   ar
     8     9    10   ar
     9    10     1    1
    10     1     2   ar
    11     2     3   ar
    12     3     4   ar
    13     4    19    1
    14    19    21    1
    15    21    22   ar
    16    22    23   ar
    17    23    24   ar
    18    24    25   ar
    19    25    26   ar
    20    25    27    1
    21    27    28    1
    22    27    29    1
    23    27    30    1
    24    30    31    1
    25    31    32    2
    26     4     5   ar
    27     5     6   ar
    28     6    33    1
    29    33    35    1
    30    35    42    1
    31    42    43    1
    32    35    36    1
    33    36    37   ar
    34    37    38   ar
    35    38    39   ar
    36    39    40   ar
    37    40    41   ar
    38    10    11   ar
    39    16    17    1
    40    17    18    1
    41    18    13    1
    42    11     7   ar
    43     6     1   ar
    44    41    36   ar
    45    26    21   ar
    46    31    24    1
    47    19    20    1
    48    33    34    1
    49    43    44    1
@<TRIPOS>MOLECULE
*****
 44 49 0 0 0
SMALL
GASTEIGER

@<TRIPOS>ATOM
      1 C         139.0930  138.7678  162.3758 C.ar    1  UNL1        0.1066
      2 C         139.7275  137.7529  163.2798 C.ar    1  UNL1        0.1093
      3 N         139.3942  137.7388  164.7422 N.ar    1  UNL1       -0.2118
      4 C         138.4263  138.7395  165.3006 C.ar    1  UNL1        0.2218
      5 N         137.7917  139.7544  164.3966 N.ar    1  UNL1       -0.1986
      6 C         138.1251  139.7685  162.9341 C.ar    1  UNL1        0.1377
      7 C         140.6698  138.7686  158.8291 C.ar    1  UNL1        0.1804
      8 N         139.2087  138.8391  158.4967 N.ar    1  UNL1       -0.0602
      9 O         138.4402  138.8473  159.7849 O.2     1  UNL1       -0.3326
     10 C         139.4263  138.7820  160.9134 C.ar    1  UNL1        0.2639
     11 N         140.8042  138.7334  160.3227 N.ar    1  UNL1       -0.1910
     12 C         145.1837  138.6490  154.8780 C.3     1  UNL1        0.0896
     13 N         144.0552  138.6789  155.8658 N.3     1  UNL1       -0.2715
     14 C         143.2586  137.4361  156.1323 C.3     1  UNL1        0.0726
     15 C         142.1301  137.4661  157.1201 C.3     1  UNL1        0.0250
     16 C         141.7983  138.7387  157.8414 C.3     1  UNL1        0.0648
     17 C         142.5949  139.9814  157.5748 C.3     1  UNL1        0.0250
     18 C         143.7233  139.9515  156.5871 C.3     1  UNL1        0.0726
     19 N         138.0929  138.7253  166.7630 N.pl3   1  UNL1       -0.2825
     20 H         137.3449  138.1763  167.0921 H       1  UNL1        0.1551
     21 C         138.8993  139.5476  167.7241 C.ar    1  UNL1        0.0503
     22 C         138.4604  139.6765  169.1526 C.ar    1  UNL1        0.0149
     23 C         139.2668  140.4988  170.1136 C.ar    1  UNL1        0.0075
     24 C         140.5120  141.1923  169.6461 C.ar    1  UNL1        0.0750
     25 C         140.9508  141.0634  168.2176 C.ar    1  UNL1        0.0211
     26 C         140.1445  140.2411  167.2566 C.ar    1  UNL1        0.0139
     27 C         142.2129  141.8559  168.0471 C.3     1  UNL1        0.1553
     28 C         142.1321  141.3822  166.6262 C.3     1  UNL1        0.0484
     29 C         143.4581  142.5493  167.5796 C.3     1  UNL1        0.0484
     30 O         142.5541  142.4745  169.3703 O.3     1  UNL1       -0.4485
     31 C         141.5029  142.0644  170.3586 C.2     1  UNL1        0.3411
     32 O         141.4515  142.4574  171.8053 O.2     1  UNL1       -0.2449
     33 N         137.4905  140.7834  162.0300 N.pl3   1  UNL1       -0.3138
     34 H         136.6144  140.5986  161.6207 H       1  UNL1        0.1485
     35 CA        138.1909  142.0799  161.7495 C.3     1  UNL1        0.1227
     36 C         138.5875  142.9787  162.8831 C.ar    1  UNL1       -0.0021
     37 C         137.5417  143.5200  163.8122 C.ar    1  UNL1       -0.0026
     38 C         137.9383  144.4187  164.9458 C.ar    1  UNL1       -0.0003
     39 C         139.3806  144.7762  165.1502 C.ar    1  UNL1       -0.0000
     40 C         140.4265  144.2349  164.2211 C.ar    1  UNL1       -0.0003
     41 C         140.0299  143.3361  163.0875 C.ar    1  UNL1       -0.0026
     42 C         138.4947  142.4777  160.3355 C.3     1  UNL1        0.1611
     43 O         139.6004  141.7957  159.5856 O.3     1  UNL1       -0.3799
     44 H         140.4512  142.0081  160.0003 H       1  UNL1        0.2105
@<TRIPOS>BOND
     1    12    13    1
     2    13    14    1
     3    14    15    1
     4    15    16    1
     5    16     7    1
     6     7     8   ar
     7     8     9   ar
     8     9    10   ar
     9    10     1    1
    10     1     2   ar
    11     2     3   ar
    12     3     4   ar
    13     4    19    1
    14    19    21    1
    15    21    22   ar
    16    22    23   ar
    17    23    24   ar
    18    24    25   ar
    19    25    26   ar
    20    25    27    1
    21    27    28    1
    22    27    29    1
    23    27    30    1
    24    30    31    1
    25    31    32    2
    26     4     5   ar
    27     5     6   ar
    28     6    33    1
    29    33    35    1
    30    35    42    1
    31    42    43    1
    32    35    36    1
    33    36    37   ar
    34    37    38   ar
    35    38    39   ar
    36    39    40   ar
    37    40    41   ar
    38    10    11   ar
    39    16    17    1
    40    17    18    1
    41    18    13    1
    42    11     7   ar
    43     6     1   ar
    44    41    36   ar
    45    26    21   ar
    46    31    24    1
    47    19    20    1
    48    33    34    1
    49    43    44    1
@<TRIPOS>MOLECULE
*****
 44 49 0 0 0
SMALL
GASTEIGER

@<TRIPOS>ATOM
      1 C         138.6867  140.1430  160.2506 C.ar    1  UNL1        0.1066
      2 C         137.6802  139.1272  160.7037 C.ar    1  UNL1        0.1093
      3 N         137.9104  138.3563  161.9696 N.ar    1  UNL1       -0.2118
      4 C         139.1470  138.6011  162.7826 C.ar    1  UNL1        0.2218
      5 N         140.1534  139.6169  162.3296 N.ar    1  UNL1       -0.1986
      6 C         139.9233  140.3878  161.0636 C.ar    1  UNL1        0.1377
      7 C         138.4724  142.6852  157.3255 C.ar    1  UNL1        0.1804
      8 N         137.7325  141.5152  156.7475 N.ar    1  UNL1       -0.0602
      9 O         137.7228  140.4206  157.7730 O.2     1  UNL1       -0.3326
     10 C         138.4566  140.9139  158.9847 C.ar    1  UNL1        0.2639
     11 N         138.9199  142.3134  158.7081 N.ar    1  UNL1       -0.1910
     12 C         139.4672  147.9306  154.5875 C.3     1  UNL1        0.0896
     13 N         139.2185  146.6192  155.2720 N.3     1  UNL1       -0.2715
     14 C         140.1587  146.1394  156.3379 C.3     1  UNL1        0.0726
     15 C         139.9099  144.8280  157.0224 C.3     1  UNL1        0.0250
     16 C         138.7211  143.9965  156.6410 C.3     1  UNL1        0.0648
     17 C         137.7811  144.4764  155.5752 C.3     1  UNL1        0.0250
     18 C         138.0298  145.7877  154.8907 C.3     1  UNL1        0.0726
     19 N         139.3771  137.8302  164.0486 N.pl3   1  UNL1       -0.2825
     20 H         139.5363  136.8594  164.0117 H       1  UNL1        0.1551
     21 C         139.3647  138.5385  165.3708 C.ar    1  UNL1        0.0503
     22 C         138.1675  138.4310  166.2681 C.ar    1  UNL1        0.0149
     23 C         138.1552  139.1392  167.5902 C.ar    1  UNL1        0.0075
     24 C         139.3400  139.9550  168.0152 C.ar    1  UNL1        0.0750
     25 C         140.5372  140.0626  167.1179 C.ar    1  UNL1        0.0211
     26 C         140.5496  139.3543  165.7958 C.ar    1  UNL1        0.0139
     27 C         141.5510  140.9327  167.8000 C.3     1  UNL1        0.1553
     28 C         142.3694  140.6730  166.5700 C.3     1  UNL1        0.0484
     29 C         142.7358  141.7485  168.2249 C.3     1  UNL1        0.0484
     30 O         140.9803  141.3629  169.1188 O.3     1  UNL1       -0.4485
     31 C         139.6139  140.7587  169.2518 C.2     1  UNL1        0.3411
     32 O         138.6844  140.9283  170.4169 O.2     1  UNL1       -0.2449
     33 N         140.9297  141.4036  160.6105 N.pl3   1  UNL1       -0.3138
     34 H         141.4334  141.2597  159.7769 H       1  UNL1        0.1485
     35 CA        141.1688  142.6387  161.4276 C.3     1  UNL1        0.1227
     36 C         140.1977  143.0259  162.5032 C.ar    1  UNL1       -0.0021
     37 C         140.5358  142.7782  163.9435 C.ar    1  UNL1       -0.0026
     38 C         139.5647  143.1655  165.0191 C.ar    1  UNL1       -0.0003
     39 C         138.2555  143.8003  164.6546 C.ar    1  UNL1       -0.0000
     40 C         137.9174  144.0480  163.2143 C.ar    1  UNL1       -0.0003
     41 C         138.8884  143.6608  162.1386 C.ar    1  UNL1       -0.0026
     42 C         142.3788  143.4865  161.1689 C.3     1  UNL1        0.1611
     43 O         142.4207  144.9033  161.6596 O.3     1  UNL1       -0.3799
     44 H         141.7522  145.4276  161.1915 H       1  UNL1        0.2105
@<TRIPOS>BOND
     1    12    13    1
     2    13    14    1
     3    14    15    1
     4    15    16    1
     5    16     7    1
     6     7     8   ar
     7     8     9   ar
     8     9    10   ar
     9    10     1    1
    10     1     2   ar
    11     2     3   ar
    12     3     4   ar
    13     4    19    1
    14    19    21    1
    15    21    22   ar
    16    22    23   ar
    17    23    24   ar
    18    24    25   ar
    19    25    26   ar
    20    25    27    1
    21    27    28    1
    22    27    29    1
    23    27    30    1
    24    30    31    1
    25    31    32    2
    26     4     5   ar
    27     5     6   ar
    28     6    33    1
    29    33    35    1
    30    35    42    1
    31    42    43    1
    32    35    36    1
    33    36    37   ar
    34    37    38   ar
    35    38    39   ar
    36    39    40   ar
    37    40    41   ar
    38    10    11   ar
    39    16    17    1
    40    17    18    1
    41    18    13    1
    42    11     7   ar
    43     6     1   ar
    44    41    36   ar
    45    26    21   ar
    46    31    24    1
    47    19    20    1
    48    33    34    1
    49    43    44    1
@<TRIPOS>MOLECULE
*****
 44 49 0 0 0
SMALL
GASTEIGER

@<TRIPOS>ATOM
      1 C         141.2336  139.6758  160.3552 C.ar    1  UNL1        0.1066
      2 C         141.6091  138.2737  160.7333 C.ar    1  UNL1        0.1093
      3 N         140.9691  137.6205  161.9223 N.ar    1  UNL1       -0.2118
      4 C         139.9534  138.3695  162.7332 C.ar    1  UNL1        0.2218
      5 N         139.5779  139.7717  162.3551 N.ar    1  UNL1       -0.1986
      6 C         140.2180  140.4248  161.1661 C.ar    1  UNL1        0.1377
      7 C         143.5317  141.1000  157.5704 C.ar    1  UNL1        0.1804
      8 N         142.1855  141.5681  157.1027 N.ar    1  UNL1       -0.0602
      9 O         141.1608  141.0915  158.0890 O.2     1  UNL1       -0.3326
     10 C         141.8736  140.3290  159.1662 C.ar    1  UNL1        0.2639
     11 N         143.3390  140.3342  158.8457 N.ar    1  UNL1       -0.1910
     12 C         148.7683  142.1132  154.8221 C.3     1  UNL1        0.0896
     13 N         147.4591  141.8599  155.5092 N.3     1  UNL1       -0.2715
     14 C         146.4887  140.8717  154.9332 C.3     1  UNL1        0.0726
     15 C         145.1796  140.6185  155.6203 C.3     1  UNL1        0.0250
     16 C         144.8409  141.3533  156.8833 C.3     1  UNL1        0.0648
     17 C         145.8113  142.3415  157.4593 C.3     1  UNL1        0.0250
     18 C         147.1204  142.5948  156.7722 C.3     1  UNL1        0.0726
     19 N         139.3134  137.7164  163.9222 N.pl3   1  UNL1       -0.2825
     20 H         138.8947  136.8301  163.8309 H       1  UNL1        0.1551
     21 C         139.3113  138.4137  165.2503 C.ar    1  UNL1        0.0503
     22 C         138.0970  138.3505  166.1286 C.ar    1  UNL1        0.0149
     23 C         138.0949  139.0477  167.4567 C.ar    1  UNL1        0.0075
     24 C         139.3071  139.8083  167.9064 C.ar    1  UNL1        0.0750
     25 C         140.5214  139.8715  167.0281 C.ar    1  UNL1        0.0211
     26 C         140.5235  139.1742  165.7000 C.ar    1  UNL1        0.0139
     27 C         141.5610  140.6915  167.7328 C.3     1  UNL1        0.1553
     28 C         142.3862  140.4069  166.5129 C.3     1  UNL1        0.0484
     29 C         142.7732  141.4520  168.1825 C.3     1  UNL1        0.0484
     30 O         140.9893  141.1351  169.0468 O.3     1  UNL1       -0.4485
     31 C         139.5963  140.5892  169.1541 C.2     1  UNL1        0.3411
     32 O         138.6573  140.7891  170.3066 O.2     1  UNL1       -0.2449
     33 N         139.8425  141.8270  160.7880 N.pl3   1  UNL1       -0.3138
     34 H         139.1573  141.9842  160.0988 H       1  UNL1        0.1485
     35 CA        140.5111  142.9896  161.4600 C.3     1  UNL1        0.1227
     36 C         140.0982  143.3948  162.8439 C.ar    1  UNL1       -0.0021
     37 C         138.8588  144.2149  163.0469 C.ar    1  UNL1       -0.0026
     38 C         138.4459  144.6201  164.4309 C.ar    1  UNL1       -0.0003
     39 C         139.2724  144.2051  165.6118 C.ar    1  UNL1       -0.0000
     40 C         140.5119  143.3849  165.4089 C.ar    1  UNL1       -0.0003
     41 C         140.9248  142.9798  164.0249 C.ar    1  UNL1       -0.0026
     42 C         141.5925  143.7469  160.7480 C.3     1  UNL1        0.1611
     43 O         141.7920  145.2076  161.0246 O.3     1  UNL1       -0.3799
     44 H         141.0171  145.7037  160.7173 H       1  UNL1        0.2105
@<TRIPOS>BOND
     1    12    13    1
     2    13    14    1
     3    14    15    1
     4    15    16    1
     5    16     7    1
     6     7     8   ar
     7     8     9   ar
     8     9    10   ar
     9    10     1    1
    10     1     2   ar
    11     2     3   ar
    12     3     4   ar
    13     4    19    1
    14    19    21    1
    15    21    22   ar
    16    22    23   ar
    17    23    24   ar
    18    24    25   ar
    19    25    26   ar
    20    25    27    1
    21    27    28    1
    22    27    29    1
    23    27    30    1
    24    30    31    1
    25    31    32    2
    26     4     5   ar
    27     5     6   ar
    28     6    33    1
    29    33    35    1
    30    35    42    1
    31    42    43    1
    32    35    36    1
    33    36    37   ar
    34    37    38   ar
    35    38    39   ar
    36    39    40   ar
    37    40    41   ar
    38    10    11   ar
    39    16    17    1
    40    17    18    1
    41    18    13    1
    42    11     7   ar
    43     6     1   ar
    44    41    36   ar
    45    26    21   ar
    46    31    24    1
    47    19    20    1
    48    33    34    1
    49    43    44    1
@<TRIPOS>MOLECULE
*****
 44 49 0 0 0
SMALL
GASTEIGER

@<TRIPOS>ATOM
      1 C         141.0189  138.4192  161.9434 C.ar    1  UNL1        0.1066
      2 C         142.4556  137.9953  161.8641 C.ar    1  UNL1        0.1093
      3 N         143.0946  137.7570  160.5282 N.ar    1  UNL1       -0.2118
      4 C         142.2969  137.9425  159.2714 C.ar    1  UNL1        0.2218
      5 N         140.8602  138.3664  159.3507 N.ar    1  UNL1       -0.1986
      6 C         140.2212  138.6047  160.6867 C.ar    1  UNL1        0.1377
      7 C         139.8897  139.5722  165.4733 C.ar    1  UNL1        0.1804
      8 N         138.9032  138.4764  165.1970 N.ar    1  UNL1       -0.0602
      9 O         139.2062  137.9112  163.8410 O.2     1  UNL1       -0.3326
     10 C         140.3798  138.6575  163.2793 C.ar    1  UNL1        0.2639
     11 N         140.8023  139.6841  164.2881 N.ar    1  UNL1       -0.1910
     12 C         140.1410  142.9198  170.4464 C.3     1  UNL1        0.0896
     13 N         140.0782  142.0829  169.2031 N.3     1  UNL1       -0.2715
     14 C         139.5460  140.6819  169.2682 C.3     1  UNL1        0.0726
     15 C         139.4832  139.8451  168.0249 C.3     1  UNL1        0.0250
     16 C         139.9525  140.4091  166.7166 C.3     1  UNL1        0.0648
     17 C         140.4847  141.8100  166.6515 C.3     1  UNL1        0.0250
     18 C         140.5475  142.6469  167.8948 C.3     1  UNL1        0.0726
     19 N         142.9360  137.7041  157.9355 N.pl3   1  UNL1       -0.2825
     20 H         143.5793  138.3560  157.5742 H       1  UNL1        0.1551
     21 C         142.5948  136.4726  157.1499 C.ar    1  UNL1        0.0503
     22 C         141.5195  136.5232  156.1053 C.ar    1  UNL1        0.0149
     23 C         141.1785  135.2917  155.3198 C.ar    1  UNL1        0.0075
     24 C         141.9127  134.0096  155.5789 C.ar    1  UNL1        0.0750
     25 C         142.9880  133.9590  156.6234 C.ar    1  UNL1        0.0211
     26 C         143.3291  135.1905  157.4089 C.ar    1  UNL1        0.0139
     27 C         143.5362  132.5632  156.6571 C.3     1  UNL1        0.1553
     28 C         144.4262  133.1072  157.7350 C.3     1  UNL1        0.0484
     29 C         144.2704  131.2811  156.9161 C.3     1  UNL1        0.0484
     30 O         142.7997  131.7511  155.6333 O.3     1  UNL1       -0.4485
     31 C         141.7963  132.6450  154.9669 C.2     1  UNL1        0.3411
     32 O         140.8438  132.2447  153.8796 O.2     1  UNL1       -0.2449
     33 N         138.7845  139.0286  160.7660 N.pl3   1  UNL1       -0.3138
     34 H         138.0935  138.3791  161.0304 H       1  UNL1        0.1485
     35 CA        138.4007  140.4421  160.4423 C.3     1  UNL1        0.1227
     36 C         138.2032  141.4373  161.5471 C.ar    1  UNL1       -0.0021
     37 C         138.5748  142.8752  161.3366 C.ar    1  UNL1       -0.0026
     38 C         138.3774  143.8704  162.4414 C.ar    1  UNL1       -0.0003
     39 C         137.8083  143.4277  163.7567 C.ar    1  UNL1       -0.0000
     40 C         137.4366  141.9898  163.9673 C.ar    1  UNL1       -0.0003
     41 C         137.6341  140.9946  162.8625 C.ar    1  UNL1       -0.0026
     42 C         138.2143  140.8604  159.0140 C.3     1  UNL1        0.1611
     43 O         138.3151  139.8439  157.9155 O.3     1  UNL1       -0.3799
     44 H         139.2236  139.5073  157.8689 H       1  UNL1        0.2105
@<TRIPOS>BOND
     1    12    13    1
     2    13    14    1
     3    14    15    1
     4    15    16    1
     5    16     7    1
     6     7     8   ar
     7     8     9   ar
     8     9    10   ar
     9    10     1    1
    10     1     2   ar
    11     2     3   ar
    12     3     4   ar
    13     4    19    1
    14    19    21    1
    15    21    22   ar
    16    22    23   ar
    17    23    24   ar
    18    24    25   ar
    19    25    26   ar
    20    25    27    1
    21    27    28    1
    22    27    29    1
    23    27    30    1
    24    30    31    1
    25    31    32    2
    26     4     5   ar
    27     5     6   ar
    28     6    33    1
    29    33    35    1
    30    35    42    1
    31    42    43    1
    32    35    36    1
    33    36    37   ar
    34    37    38   ar
    35    38    39   ar
    36    39    40   ar
    37    40    41   ar
    38    10    11   ar
    39    16    17    1
    40    17    18    1
    41    18    13    1
    42    11     7   ar
    43     6     1   ar
    44    41    36   ar
    45    26    21   ar
    46    31    24    1
    47    19    20    1
    48    33    34    1
    49    43    44    1
