@<TRIPOS>MOLECULE
*****
 25 28 0 0 0
SMALL
GASTEIGER

@<TRIPOS>ATOM
      1 C         139.4530  137.4152  164.8705 C.3     1  UNL1        0.0564
      2 C         140.5243  137.9054  163.9419 C.3     1  UNL1        0.1119
      3 C         141.9224  138.2850  164.3311 C.ar    1  UNL1       -0.0002
      4 C         142.6286  138.2937  165.6543 C.ar    1  UNL1       -0.0024
      5 C         144.0602  138.7336  165.7375 C.ar    1  UNL1       -0.0003
      6 C         144.7855  139.1648  164.4974 C.ar    1  UNL1        0.0000
      7 C         144.0793  139.1561  163.1741 C.ar    1  UNL1        0.0012
      8 C         142.6477  138.7162  163.0909 C.ar    1  UNL1        0.0152
      9 C         141.6980  138.6031  161.9354 C.ar    1  UNL1        0.0804
     10 C         141.5593  138.7997  160.4548 C.ar    1  UNL1        0.1177
     11 N         140.1612  138.4201  160.0658 N.ar    1  UNL1       -0.2223
     12 C         139.4359  137.9889  161.3059 C.ar    1  UNL1        0.1788
     13 N         140.3856  138.1020  162.4614 N.ar    1  UNL1       -0.3069
     14 C         138.5147  138.3920  165.5152 C.3     1  UNL1        0.1128
     15 O         137.5742  137.9315  166.5891 O.3     1  UNL1       -0.3844
     16 H         137.7009  136.9825  166.7447 H       1  UNL1        0.2103
     17 C         139.3322  145.1498  164.5593 C.3     1  UNL1        0.0948
     18 C         138.5239  144.1411  163.7983 C.2     1  UNL1        0.2261
     19 O         137.7179  144.5697  162.6081 O.2     1  UNL1       -0.2749
     20 N         138.5216  142.7038  164.2275 N.am    1  UNL1       -0.2795
     21 C         139.3276  142.2752  165.4177 C.3     1  UNL1        0.0935
     22 C         139.3253  140.8379  165.8469 C.3     1  UNL1        0.0240
     23 C         138.5170  139.8293  165.0859 C.3     1  UNL1        0.0304
     24 C         137.7110  140.2579  163.8957 C.3     1  UNL1        0.0240
     25 C         137.7133  141.6952  163.4665 C.3     1  UNL1        0.0935
@<TRIPOS>BOND
     1    17    18    1
     2    18    19    2
     3    18    20   am
     4    20    21    1
     5    21    22    1
     6    22    23    1
     7    23    14    1
     8    14    15    1
     9    14     1    1
    10     1     2    1
    11     2     3    1
    12     3     4   ar
    13     4     5   ar
    14     5     6   ar
    15     6     7   ar
    16     7     8   ar
    17     8     9    1
    18     9    10   ar
    19    10    11   ar
    20    11    12   ar
    21    12    13   ar
    22    23    24    1
    23    24    25    1
    24    25    20    1
    25    13     2    1
    26     8     3   ar
    27    13     9   ar
    28    15    16    1
@<TRIPOS>MOLECULE
*****
 25 28 0 0 0
SMALL
GASTEIGER

@<TRIPOS>ATOM
      1 C         139.2110  138.9719  165.1692 C.3     1  UNL1        0.0564
      2 C         138.6963  139.8322  164.0533 C.3     1  UNL1        0.1119
      3 C         138.5432  141.3239  164.0888 C.ar    1  UNL1       -0.0002
      4 C         138.8307  142.3373  165.1567 C.ar    1  UNL1       -0.0024
      5 C         138.5717  143.7921  164.8992 C.ar    1  UNL1       -0.0003
      6 C         138.0252  144.2336  163.5739 C.ar    1  UNL1        0.0000
      7 C         137.7377  143.2202  162.5061 C.ar    1  UNL1        0.0012
      8 C         137.9966  141.7654  162.7635 C.ar    1  UNL1        0.0152
      9 C         137.8120  140.5465  161.9090 C.ar    1  UNL1        0.0804
     10 C         137.3602  140.0660  160.5617 C.ar    1  UNL1        0.1177
     11 N         137.5134  138.5742  160.5263 N.ar    1  UNL1       -0.2223
     12 C         138.0599  138.1327  161.8516 C.ar    1  UNL1        0.1788
     13 N         138.2445  139.3517  162.7061 N.ar    1  UNL1       -0.3069
     14 C         138.7370  139.2024  166.5737 C.3     1  UNL1        0.1128
     15 O         137.3788  138.7250  166.9947 O.3     1  UNL1       -0.3844
     16 H         136.9416  138.2918  166.2449 H       1  UNL1        0.2103
     17 C         143.6531  142.4635  170.1017 C.3     1  UNL1        0.0948
     18 C         142.2744  142.0336  170.5070 C.2     1  UNL1        0.2261
     19 O         141.7800  142.3115  171.8956 O.2     1  UNL1       -0.2749
     20 N         141.3900  141.3258  169.5236 N.am    1  UNL1       -0.2795
     21 C         141.8844  141.0479  168.1350 C.3     1  UNL1        0.0935
     22 C         141.0001  140.3400  167.1517 C.3     1  UNL1        0.0240
     23 C         139.6214  139.9102  167.5570 C.3     1  UNL1        0.0304
     24 C         139.1270  140.1881  168.9456 C.3     1  UNL1        0.0240
     25 C         140.0113  140.8959  169.9290 C.3     1  UNL1        0.0935
@<TRIPOS>BOND
     1    17    18    1
     2    18    19    2
     3    18    20   am
     4    20    21    1
     5    21    22    1
     6    22    23    1
     7    23    14    1
     8    14    15    1
     9    14     1    1
    10     1     2    1
    11     2     3    1
    12     3     4   ar
    13     4     5   ar
    14     5     6   ar
    15     6     7   ar
    16     7     8   ar
    17     8     9    1
    18     9    10   ar
    19    10    11   ar
    20    11    12   ar
    21    12    13   ar
    22    23    24    1
    23    24    25    1
    24    25    20    1
    25    13     2    1
    26     8     3   ar
    27    13     9   ar
    28    15    16    1
@<TRIPOS>MOLECULE
*****
 25 28 0 0 0
SMALL
GASTEIGER

@<TRIPOS>ATOM
      1 C         137.2429  142.2685  163.1606 C.3     1  UNL1        0.0564
      2 C         137.8161  140.9123  162.8735 C.3     1  UNL1        0.1119
      3 C         138.1740  139.8725  163.8936 C.ar    1  UNL1       -0.0002
      4 C         138.0803  139.8610  165.3906 C.ar    1  UNL1       -0.0024
      5 C         138.5236  138.6524  166.1605 C.ar    1  UNL1       -0.0003
      6 C         139.0607  137.4554  165.4334 C.ar    1  UNL1        0.0000
      7 C         139.1544  137.4669  163.9364 C.ar    1  UNL1        0.0012
      8 C         138.7111  138.6755  163.1665 C.ar    1  UNL1        0.0152
      9 C         138.6851  138.9756  161.6970 C.ar    1  UNL1        0.0804
     10 C         139.0010  138.4211  160.3395 C.ar    1  UNL1        0.1177
     11 N         138.6430  139.4611  159.3194 N.ar    1  UNL1       -0.2223
     12 C         138.1059  140.6581  160.0465 C.ar    1  UNL1        0.1788
     13 N         138.1319  140.3580  161.5159 N.ar    1  UNL1       -0.3069
     14 C         138.0755  143.4966  162.9403 C.3     1  UNL1        0.1128
     15 O         137.4290  144.7675  162.4747 O.3     1  UNL1       -0.3844
     16 H         136.4759  144.6242  162.3655 H       1  UNL1        0.2103
     17 C         144.5234  143.4213  165.3213 C.3     1  UNL1        0.0948
     18 C         143.9922  143.3255  163.9218 C.2     1  UNL1        0.2261
     19 O         144.9402  143.1869  162.7676 O.2     1  UNL1       -0.2749
     20 N         142.5130  143.3682  163.6764 N.am    1  UNL1       -0.2795
     21 C         141.5650  143.5069  164.8305 C.3     1  UNL1        0.0935
     22 C         140.0858  143.5497  164.5852 C.3     1  UNL1        0.0240
     23 C         139.5547  143.4538  163.1856 C.3     1  UNL1        0.0304
     24 C         140.5027  143.3152  162.0315 C.3     1  UNL1        0.0240
     25 C         141.9819  143.2724  162.2768 C.3     1  UNL1        0.0935
@<TRIPOS>BOND
     1    17    18    1
     2    18    19    2
     3    18    20   am
     4    20    21    1
     5    21    22    1
     6    22    23    1
     7    23    14    1
     8    14    15    1
     9    14     1    1
    10     1     2    1
    11     2     3    1
    12     3     4   ar
    13     4     5   ar
    14     5     6   ar
    15     6     7   ar
    16     7     8   ar
    17     8     9    1
    18     9    10   ar
    19    10    11   ar
    20    11    12   ar
    21    12    13   ar
    22    23    24    1
    23    24    25    1
    24    25    20    1
    25    13     2    1
    26     8     3   ar
    27    13     9   ar
    28    15    16    1
@<TRIPOS>MOLECULE
*****
 25 28 0 0 0
SMALL
GASTEIGER

@<TRIPOS>ATOM
      1 C         138.1082  139.4781  165.8021 C.3     1  UNL1        0.0564
      2 C         139.0264  140.6635  165.8446 C.3     1  UNL1        0.1119
      3 C         138.8300  141.9575  165.1118 C.ar    1  UNL1       -0.0002
      4 C         137.7492  142.4332  164.1869 C.ar    1  UNL1       -0.0024
      5 C         137.8228  143.8081  163.5918 C.ar    1  UNL1       -0.0003
      6 C         138.9772  144.7073  163.9216 C.ar    1  UNL1        0.0000
      7 C         140.0580  144.2316  164.8465 C.ar    1  UNL1        0.0012
      8 C         139.9844  142.8567  165.4416 C.ar    1  UNL1        0.0152
      9 C         140.8942  142.1184  166.3782 C.ar    1  UNL1        0.0804
     10 C         142.1700  142.2179  167.1609 C.ar    1  UNL1        0.1177
     11 N         142.3663  140.9238  167.8936 N.ar    1  UNL1       -0.2223
     12 C         141.2119  140.0246  167.5638 C.ar    1  UNL1        0.1788
     13 N         140.3021  140.7629  166.6272 N.ar    1  UNL1       -0.3069
     14 C         138.6249  138.1450  165.3483 C.3     1  UNL1        0.1128
     15 O         138.1176  136.8866  165.9880 O.3     1  UNL1       -0.3844
     16 H         137.4659  137.1110  166.6705 H       1  UNL1        0.2103
     17 C         142.3022  138.0013  159.5425 C.3     1  UNL1        0.0948
     18 C         142.7212  137.8460  160.9744 C.2     1  UNL1        0.2261
     19 O         144.1643  137.6160  161.3128 O.2     1  UNL1       -0.2749
     20 N         141.6972  137.9208  162.0680 N.am    1  UNL1       -0.2795
     21 C         140.2541  138.1508  161.7295 C.3     1  UNL1        0.0935
     22 C         139.2300  138.2255  162.8230 C.3     1  UNL1        0.0240
     23 C         139.6490  138.0702  164.2548 C.3     1  UNL1        0.0304
     24 C         141.0921  137.8402  164.5932 C.3     1  UNL1        0.0240
     25 C         142.1162  137.7655  163.4998 C.3     1  UNL1        0.0935
@<TRIPOS>BOND
     1    17    18    1
     2    18    19    2
     3    18    20   am
     4    20    21    1
     5    21    22    1
     6    22    23    1
     7    23    14    1
     8    14    15    1
     9    14     1    1
    10     1     2    1
    11     2     3    1
    12     3     4   ar
    13     4     5   ar
    14     5     6   ar
    15     6     7   ar
    16     7     8   ar
    17     8     9    1
    18     9    10   ar
    19    10    11   ar
    20    11    12   ar
    21    12    13   ar
    22    23    24    1
    23    24    25    1
    24    25    20    1
    25    13     2    1
    26     8     3   ar
    27    13     9   ar
    28    15    16    1
@<TRIPOS>MOLECULE
*****
 25 28 0 0 0
SMALL
GASTEIGER

@<TRIPOS>ATOM
      1 C         145.1964  142.2277  164.3438 C.3     1  UNL1        0.0564
      2 C         144.4437  141.2645  163.4745 C.3     1  UNL1        0.1119
      3 C         143.6790  140.0634  163.9462 C.ar    1  UNL1       -0.0002
      4 C         143.4459  139.4960  165.3151 C.ar    1  UNL1       -0.0024
      5 C         142.6200  138.2550  165.4818 C.ar    1  UNL1       -0.0003
      6 C         142.0273  137.5814  164.2797 C.ar    1  UNL1        0.0000
      7 C         142.2604  138.1488  162.9109 C.ar    1  UNL1        0.0012
      8 C         143.0863  139.3898  162.7442 C.ar    1  UNL1        0.0152
      9 C         143.4847  140.1746  161.5296 C.ar    1  UNL1        0.0804
     10 C         143.3645  140.2433  160.0359 C.ar    1  UNL1        0.1177
     11 N         144.1293  141.4445  159.5642 N.ar    1  UNL1       -0.2223
     12 C         144.7220  142.1181  160.7663 C.ar    1  UNL1        0.1788
     13 N         144.3236  141.3333  161.9809 N.ar    1  UNL1       -0.3069
     14 C         144.4915  143.4122  164.9358 C.3     1  UNL1        0.1128
     15 O         145.1637  144.2314  165.9974 O.3     1  UNL1       -0.3844
     16 H         146.0415  143.8626  166.1831 H       1  UNL1        0.2103
     17 C         137.7810  144.2527  163.7059 C.3     1  UNL1        0.0948
     18 C         138.9834  144.8725  163.0577 C.2     1  UNL1        0.2261
     19 O         138.8087  145.8573  161.9399 O.2     1  UNL1       -0.2749
     20 N         140.3605  144.5074  163.5272 N.am    1  UNL1       -0.2795
     21 C         140.5352  143.5225  164.6450 C.3     1  UNL1        0.0935
     22 C         141.9122  143.1574  165.1146 C.3     1  UNL1        0.0240
     23 C         143.1145  143.7773  164.4663 C.3     1  UNL1        0.0304
     24 C         142.9398  144.7621  163.3485 C.3     1  UNL1        0.0240
     25 C         141.5627  145.1272  162.8789 C.3     1  UNL1        0.0935
@<TRIPOS>BOND
     1    17    18    1
     2    18    19    2
     3    18    20   am
     4    20    21    1
     5    21    22    1
     6    22    23    1
     7    23    14    1
     8    14    15    1
     9    14     1    1
    10     1     2    1
    11     2     3    1
    12     3     4   ar
    13     4     5   ar
    14     5     6   ar
    15     6     7   ar
    16     7     8   ar
    17     8     9    1
    18     9    10   ar
    19    10    11   ar
    20    11    12   ar
    21    12    13   ar
    22    23    24    1
    23    24    25    1
    24    25    20    1
    25    13     2    1
    26     8     3   ar
    27    13     9   ar
    28    15    16    1
@<TRIPOS>MOLECULE
*****
 25 28 0 0 0
SMALL
GASTEIGER

@<TRIPOS>ATOM
      1 C         144.2140  139.4902  165.1261 C.3     1  UNL1        0.0564
      2 C         144.1250  140.3117  163.8742 C.3     1  UNL1        0.1119
      3 C         144.0781  141.8093  163.8039 C.ar    1  UNL1       -0.0002
      4 C         144.1031  142.8653  164.8689 C.ar    1  UNL1       -0.0024
      5 C         144.0414  144.3151  164.4890 C.ar    1  UNL1       -0.0003
      6 C         143.9547  144.7088  163.0442 C.ar    1  UNL1        0.0000
      7 C         143.9297  143.6527  161.9792 C.ar    1  UNL1        0.0012
      8 C         143.9914  142.2030  162.3591 C.ar    1  UNL1        0.0152
      9 C         143.9848  140.9487  161.5365 C.ar    1  UNL1        0.0804
     10 C         143.9271  140.4168  160.1351 C.ar    1  UNL1        0.1177
     11 N         143.9740  138.9192  160.2055 N.ar    1  UNL1       -0.2223
     12 C         144.0607  138.5255  161.6503 C.ar    1  UNL1        0.1788
     13 N         144.0674  139.7798  162.4729 N.ar    1  UNL1       -0.3069
     14 C         142.9629  138.9896  165.7852 C.3     1  UNL1        0.1128
     15 O         142.2750  137.7658  165.2570 O.3     1  UNL1       -0.3844
     16 H         142.7653  137.4236  164.4932 H       1  UNL1        0.2103
     17 C         139.9584  143.1664  170.3434 C.3     1  UNL1        0.0948
     18 C         140.7105  141.8828  170.5345 C.2     1  UNL1        0.2261
     19 O         140.8995  141.3224  171.9130 O.2     1  UNL1       -0.2749
     20 N         141.2736  141.1594  169.3472 N.am    1  UNL1       -0.2795
     21 C         141.0846  141.7198  167.9687 C.3     1  UNL1        0.0935
     22 C         141.6477  140.9965  166.7814 C.3     1  UNL1        0.0240
     23 C         142.3998  139.7129  166.9726 C.3     1  UNL1        0.0304
     24 C         142.5889  139.1525  168.3511 C.3     1  UNL1        0.0240
     25 C         142.0258  139.8758  169.5384 C.3     1  UNL1        0.0935
@<TRIPOS>BOND
     1    17    18    1
     2    18    19    2
     3    18    20   am
     4    20    21    1
     5    21    22    1
     6    22    23    1
     7    23    14    1
     8    14    15    1
     9    14     1    1
    10     1     2    1
    11     2     3    1
    12     3     4   ar
    13     4     5   ar
    14     5     6   ar
    15     6     7   ar
    16     7     8   ar
    17     8     9    1
    18     9    10   ar
    19    10    11   ar
    20    11    12   ar
    21    12    13   ar
    22    23    24    1
    23    24    25    1
    24    25    20    1
    25    13     2    1
    26     8     3   ar
    27    13     9   ar
    28    15    16    1
@<TRIPOS>MOLECULE
*****
 25 28 0 0 0
SMALL
GASTEIGER

@<TRIPOS>ATOM
      1 C         140.6423  140.0943  163.3114 C.3     1  UNL1        0.0564
      2 C         140.6891  141.5932  163.3448 C.3     1  UNL1        0.1119
      3 C         141.8762  142.4302  163.7195 C.ar    1  UNL1       -0.0002
      4 C         143.2685  142.0652  164.1416 C.ar    1  UNL1       -0.0024
      5 C         144.2623  143.1426  164.4600 C.ar    1  UNL1       -0.0003
      6 C         143.8638  144.5850  164.3563 C.ar    1  UNL1        0.0000
      7 C         142.4716  144.9500  163.9341 C.ar    1  UNL1        0.0012
      8 C         141.4777  143.8725  163.6157 C.ar    1  UNL1        0.0152
      9 C         140.0444  143.9270  163.1770 C.ar    1  UNL1        0.0804
     10 C         138.9122  144.8522  162.8417 C.ar    1  UNL1        0.1177
     11 N         137.7251  144.0152  162.4671 N.ar    1  UNL1       -0.2223
     12 C         138.1236  142.5728  162.5708 C.ar    1  UNL1        0.1788
     13 N         139.5569  142.5183  163.0096 N.ar    1  UNL1       -0.3069
     14 C         140.0149  139.3380  164.4448 C.3     1  UNL1        0.1128
     15 O         138.9107  138.3598  164.1733 O.3     1  UNL1       -0.3844
     16 H         138.7256  138.3370  163.2214 H       1  UNL1        0.2103
     17 C         140.9701  140.7284  171.1084 C.3     1  UNL1        0.0948
     18 C         141.9221  140.2260  170.0638 C.2     1  UNL1        0.2261
     19 O         143.3510  139.9456  170.4240 O.2     1  UNL1       -0.2749
     20 N         141.4453  140.0040  168.6590 N.am    1  UNL1       -0.2795
     21 C         140.0165  140.2844  168.2988 C.3     1  UNL1        0.0935
     22 C         139.5397  140.0624  166.8941 C.3     1  UNL1        0.0240
     23 C         140.4917  139.5600  165.8495 C.3     1  UNL1        0.0304
     24 C         141.9206  139.2796  166.2097 C.3     1  UNL1        0.0240
     25 C         142.3974  139.5016  167.6145 C.3     1  UNL1        0.0935
@<TRIPOS>BOND
     1    17    18    1
     2    18    19    2
     3    18    20   am
     4    20    21    1
     5    21    22    1
     6    22    23    1
     7    23    14    1
     8    14    15    1
     9    14     1    1
    10     1     2    1
    11     2     3    1
    12     3     4   ar
    13     4     5   ar
    14     5     6   ar
    15     6     7   ar
    16     7     8   ar
    17     8     9    1
    18     9    10   ar
    19    10    11   ar
    20    11    12   ar
    21    12    13   ar
    22    23    24    1
    23    24    25    1
    24    25    20    1
    25    13     2    1
    26     8     3   ar
    27    13     9   ar
    28    15    16    1
@<TRIPOS>MOLECULE
*****
 25 28 0 0 0
SMALL
GASTEIGER

@<TRIPOS>ATOM
      1 C         138.0995  139.4778  165.9378 C.3     1  UNL1        0.0564
      2 C         139.0315  140.6516  165.9971 C.3     1  UNL1        0.1119
      3 C         140.2680  140.7540  166.8401 C.ar    1  UNL1       -0.0002
      4 C         140.9068  139.7995  167.8049 C.ar    1  UNL1       -0.0024
      5 C         142.1690  140.1859  168.5173 C.ar    1  UNL1       -0.0003
      6 C         142.7923  141.5267  168.2650 C.ar    1  UNL1        0.0000
      7 C         142.1535  142.4812  167.3002 C.ar    1  UNL1        0.0012
      8 C         140.8913  142.0948  166.5878 C.ar    1  UNL1        0.0152
      9 C         140.0401  142.8211  165.5888 C.ar    1  UNL1        0.0804
     10 C         139.8992  144.0987  164.8155 C.ar    1  UNL1        0.1177
     11 N         138.6627  143.9963  163.9725 N.ar    1  UNL1       -0.2223
     12 C         138.0394  142.6554  164.2248 C.ar    1  UNL1        0.1788
     13 N         138.8906  141.9292  165.2237 N.ar    1  UNL1       -0.3069
     14 C         138.5964  138.1495  165.4489 C.3     1  UNL1        0.1128
     15 O         138.1206  136.8848  166.1000 O.3     1  UNL1       -0.3844
     16 H         137.5007  137.1020  166.8137 H       1  UNL1        0.2103
     17 C         143.9541  137.7404  161.1619 C.3     1  UNL1        0.0948
     18 C         142.4874  137.8959  160.8887 C.2     1  UNL1        0.2261
     19 O         141.9935  137.9879  159.4753 O.2     1  UNL1       -0.2749
     20 N         141.5146  137.9593  162.0287 N.am    1  UNL1       -0.2795
     21 C         142.0085  137.8673  163.4421 C.3     1  UNL1        0.0935
     22 C         141.0358  137.9307  164.5821 C.3     1  UNL1        0.0240
     23 C         139.5692  138.0861  164.3088 C.3     1  UNL1        0.0304
     24 C         139.0752  138.1782  162.8954 C.3     1  UNL1        0.0240
     25 C         140.0480  138.1148  161.7554 C.3     1  UNL1        0.0935
@<TRIPOS>BOND
     1    17    18    1
     2    18    19    2
     3    18    20   am
     4    20    21    1
     5    21    22    1
     6    22    23    1
     7    23    14    1
     8    14    15    1
     9    14     1    1
    10     1     2    1
    11     2     3    1
    12     3     4   ar
    13     4     5   ar
    14     5     6   ar
    15     6     7   ar
    16     7     8   ar
    17     8     9    1
    18     9    10   ar
    19    10    11   ar
    20    11    12   ar
    21    12    13   ar
    22    23    24    1
    23    24    25    1
    24    25    20    1
    25    13     2    1
    26     8     3   ar
    27    13     9   ar
    28    15    16    1
@<TRIPOS>MOLECULE
*****
 25 28 0 0 0
SMALL
GASTEIGER

@<TRIPOS>ATOM
      1 C         144.7410  140.3579  164.3743 C.3     1  UNL1        0.0564
      2 C         143.3139  139.9063  164.4715 C.3     1  UNL1        0.1119
      3 C         142.3292  140.3165  165.5261 C.ar    1  UNL1       -0.0002
      4 C         142.4497  141.2272  166.7119 C.ar    1  UNL1       -0.0024
      5 C         141.2685  141.4503  167.6091 C.ar    1  UNL1       -0.0003
      6 C         139.9670  140.7629  167.3206 C.ar    1  UNL1        0.0000
      7 C         139.8465  139.8522  166.1348 C.ar    1  UNL1        0.0012
      8 C         141.0276  139.6291  165.2375 C.ar    1  UNL1        0.0152
      9 C         141.2079  138.7940  164.0045 C.ar    1  UNL1        0.0804
     10 C         140.5148  137.8530  163.0641 C.ar    1  UNL1        0.1177
     11 N         141.4995  137.4429  162.0095 N.ar    1  UNL1       -0.2223
     12 C         142.8011  138.1304  162.2981 C.ar    1  UNL1        0.1788
     13 N         142.6209  138.9654  163.5311 N.ar    1  UNL1       -0.3069
     14 C         145.1008  141.5249  163.5031 C.3     1  UNL1        0.1128
     15 O         146.5384  141.8028  163.1777 O.3     1  UNL1       -0.3844
     16 H         147.1011  141.1390  163.6063 H       1  UNL1        0.2103
     17 C         140.2534  144.8486  159.9386 C.3     1  UNL1        0.0948
     18 C         140.7892  145.0808  161.3203 C.2     1  UNL1        0.2261
     19 O         140.2469  146.2020  162.1562 O.2     1  UNL1       -0.2749
     20 N         141.8671  144.1918  161.8660 N.am    1  UNL1       -0.2795
     21 C         142.4093  143.0706  161.0301 C.3     1  UNL1        0.0935
     22 C         143.4872  142.1816  161.5758 C.3     1  UNL1        0.0240
     23 C         144.0229  142.4139  162.9574 C.3     1  UNL1        0.0304
     24 C         143.4806  143.5351  163.7934 C.3     1  UNL1        0.0240
     25 C         142.4027  144.4241  163.2477 C.3     1  UNL1        0.0935
@<TRIPOS>BOND
     1    17    18    1
     2    18    19    2
     3    18    20   am
     4    20    21    1
     5    21    22    1
     6    22    23    1
     7    23    14    1
     8    14    15    1
     9    14     1    1
    10     1     2    1
    11     2     3    1
    12     3     4   ar
    13     4     5   ar
    14     5     6   ar
    15     6     7   ar
    16     7     8   ar
    17     8     9    1
    18     9    10   ar
    19    10    11   ar
    20    11    12   ar
    21    12    13   ar
    22    23    24    1
    23    24    25    1
    24    25    20    1
    25    13     2    1
    26     8     3   ar
    27    13     9   ar
    28    15    16    1
