@<TRIPOS>MOLECULE
*****
 32 36 0 0 0
SMALL
GASTEIGER

@<TRIPOS>ATOM
      1 C         137.7343  139.2944  162.2339 C.3     1  UNL1        0.0731
      2 N         138.0174  140.5375  163.0241 N.3     1  UNL1       -0.2712
      3 C         137.3261  141.8593  162.8660 C.3     1  UNL1        0.0738
      4 C         137.9230  142.8158  163.8553 C.3     1  UNL1        0.0372
      5 C         137.8646  144.2239  164.3691 C.3     1  UNL1        0.0245
      6 C         138.8886  144.3636  165.4562 C.3     1  UNL1        0.0909
      7 N         139.5799  143.0417  165.6144 N.pl3   1  UNL1       -0.3077
      8 C         138.9831  142.0852  164.6250 C.3     1  UNL1        0.0901
      9 C         139.0415  140.6771  164.1113 C.3     1  UNL1        0.0921
     10 C         140.6757  142.7310  166.5905 C.ar    1  UNL1        0.0485
     11 C         142.0791  142.5262  166.1024 C.ar    1  UNL1        0.0146
     12 C         143.1749  142.2155  167.0786 C.ar    1  UNL1        0.0020
     13 C         142.8671  142.1096  168.5428 C.ar    1  UNL1        0.0104
     14 C         141.4635  142.3143  169.0310 C.ar    1  UNL1        0.0697
     15 C         140.3678  142.6250  168.0548 C.ar    1  UNL1        0.0248
     16 C         141.1558  142.2084  170.4952 C.1     1  UNL1        0.1005
     17 N         140.8480  142.1024  171.9594 N.1     1  UNL1       -0.1908
     18 C         138.7442  138.1861  162.1921 C.3     1  UNL1        0.0294
     19 C         139.5438  137.9465  160.9457 C.3     1  UNL1        0.0666
     20 S         140.8623  138.6361  160.7563 S.3     1  UNL1       -0.0756
     21 C         141.5369  142.3663  161.5911 C.ar    1  UNL1        0.2029
     22 N         140.6207  142.4945  160.4104 N.ar    1  UNL1       -0.1250
     23 N         140.2565  141.1129  159.9539 N.ar    1  UNL1       -0.1220
     24 C         140.9476  140.1306  160.8526 C.ar    1  UNL1        0.1933
     25 N         141.7389  140.9052  161.8644 N.ar    1  UNL1       -0.2860
     26 C         142.5839  140.3213  162.9576 C.3     1  UNL1        0.1341
     27 C         144.7168  143.0766  161.7728 C.3     1  UNL1        0.0556
     28 C         143.6060  143.8264  162.4465 C.ar    1  UNL1        0.1001
     29 N         143.7618  145.0344  163.3220 N.ar    1  UNL1       -0.2085
     30 C         142.3965  145.4544  163.7796 C.ar    1  UNL1        0.2849
     31 O         141.3968  144.5061  163.1869 O.2     1  UNL1       -0.4283
     32 C         142.1444  143.4999  162.3630 C.ar    1  UNL1        0.1964
@<TRIPOS>BOND
     1    27    28    1
     2    28    29   ar
     3    29    30   ar
     4    30    31   ar
     5    31    32   ar
     6    32    21    1
     7    21    22   ar
     8    22    23   ar
     9    23    24   ar
    10    24    20    1
    11    20    19    1
    12    19    18    1
    13    18     1    1
    14     1     2    1
    15     2     3    1
    16     3     4    1
    17     4     5    1
    18     5     6    1
    19     6     7    1
    20     7    10    1
    21    10    11   ar
    22    11    12   ar
    23    12    13   ar
    24    13    14   ar
    25    14    16    1
    26    16    17    3
    27    14    15   ar
    28     7     8    1
    29     8     9    1
    30    24    25   ar
    31    25    26    1
    32    32    28   ar
    33    25    21   ar
    34     9     2    1
    35     8     4    1
    36    15    10   ar
@<TRIPOS>MOLECULE
*****
 32 36 0 0 0
SMALL
GASTEIGER

@<TRIPOS>ATOM
      1 C         144.2010  143.7023  163.0484 C.3     1  UNL1        0.0731
      2 N         143.8515  142.4848  163.8519 N.3     1  UNL1       -0.2712
      3 C         143.8476  141.0703  163.3527 C.3     1  UNL1        0.0738
      4 C         143.4383  140.1794  164.4878 C.3     1  UNL1        0.0372
      5 C         143.1828  138.7545  164.8809 C.3     1  UNL1        0.0245
      6 C         142.7759  138.7376  166.3246 C.3     1  UNL1        0.0909
      7 N         142.7799  140.1522  166.8238 N.pl3   1  UNL1       -0.3077
      8 C         143.1892  141.0432  165.6886 C.3     1  UNL1        0.0901
      9 C         143.4446  142.4681  165.2955 C.3     1  UNL1        0.0921
     10 C         142.4350  140.5976  168.2140 C.ar    1  UNL1        0.0485
     11 C         142.8095  139.7443  169.3894 C.ar    1  UNL1        0.0146
     12 C         142.4646  140.1896  170.7797 C.ar    1  UNL1        0.0020
     13 C         141.7453  141.4882  170.9945 C.ar    1  UNL1        0.0104
     14 C         141.3708  142.3416  169.8190 C.ar    1  UNL1        0.0697
     15 C         141.7156  141.8962  168.4288 C.ar    1  UNL1        0.0248
     16 C         140.6515  143.6402  170.0338 C.1     1  UNL1        0.1005
     17 N         139.9321  144.9388  170.2486 N.1     1  UNL1       -0.1908
     18 C         143.3633  144.9414  163.1616 C.3     1  UNL1        0.0294
     19 C         142.0742  145.0473  162.4019 C.3     1  UNL1        0.0666
     20 S         140.7654  144.9430  163.1273 S.3     1  UNL1       -0.0756
     21 C         139.8911  141.3220  164.2180 C.ar    1  UNL1        0.2029
     22 N         139.7188  142.0637  165.5104 N.ar    1  UNL1       -0.1250
     23 N         140.0254  143.5104  165.2592 N.ar    1  UNL1       -0.1220
     24 C         140.3871  143.6628  163.8115 C.ar    1  UNL1        0.1933
     25 N         140.3042  142.3104  163.1680 N.ar    1  UNL1       -0.2860
     26 C         140.5849  142.0007  161.7274 C.3     1  UNL1        0.1341
     27 C         138.0905  139.3540  166.0980 C.3     1  UNL1        0.0556
     28 C         138.8587  138.9459  164.8760 C.ar    1  UNL1        0.1001
     29 N         138.9341  137.5615  164.3035 N.ar    1  UNL1       -0.2085
     30 C         139.8083  137.6104  163.0856 C.ar    1  UNL1        0.2849
     31 O         140.2732  139.0251  162.9053 O.2     1  UNL1       -0.4283
     32 C         139.6863  139.8504  164.0118 C.ar    1  UNL1        0.1964
@<TRIPOS>BOND
     1    27    28    1
     2    28    29   ar
     3    29    30   ar
     4    30    31   ar
     5    31    32   ar
     6    32    21    1
     7    21    22   ar
     8    22    23   ar
     9    23    24   ar
    10    24    20    1
    11    20    19    1
    12    19    18    1
    13    18     1    1
    14     1     2    1
    15     2     3    1
    16     3     4    1
    17     4     5    1
    18     5     6    1
    19     6     7    1
    20     7    10    1
    21    10    11   ar
    22    11    12   ar
    23    12    13   ar
    24    13    14   ar
    25    14    16    1
    26    16    17    3
    27    14    15   ar
    28     7     8    1
    29     8     9    1
    30    24    25   ar
    31    25    26    1
    32    32    28   ar
    33    25    21   ar
    34     9     2    1
    35     8     4    1
    36    15    10   ar
@<TRIPOS>MOLECULE
*****
 32 36 0 0 0
SMALL
GASTEIGER

@<TRIPOS>ATOM
      1 C         140.6889  145.8760  162.5125 C.3     1  UNL1        0.0731
      2 N         141.6288  144.8464  163.0661 N.3     1  UNL1       -0.2712
      3 C         142.9523  144.4544  162.4790 C.3     1  UNL1        0.0738
      4 C         143.5516  143.3938  163.3541 C.3     1  UNL1        0.0372
      5 C         144.7400  142.4959  163.5321 C.3     1  UNL1        0.0245
      6 C         144.5215  141.6776  164.7701 C.3     1  UNL1        0.0909
      7 N         143.1979  142.0697  165.3572 N.pl3   1  UNL1       -0.3077
      8 C         142.5986  143.1303  164.4821 C.3     1  UNL1        0.0901
      9 C         141.4102  144.0281  164.3041 C.3     1  UNL1        0.0921
     10 C         142.5820  141.5009  166.6011 C.ar    1  UNL1        0.0485
     11 C         142.7184  140.0383  166.9043 C.ar    1  UNL1        0.0146
     12 C         142.1024  139.4695  168.1481 C.ar    1  UNL1        0.0020
     13 C         141.3500  140.3635  169.0887 C.ar    1  UNL1        0.0104
     14 C         141.2136  141.8262  168.7855 C.ar    1  UNL1        0.0697
     15 C         141.8296  142.3949  167.5417 C.ar    1  UNL1        0.0248
     16 C         140.4613  142.7201  169.7262 C.1     1  UNL1        0.1005
     17 N         139.7089  143.6141  170.6668 N.1     1  UNL1       -0.1908
     18 C         139.9077  145.5850  161.2655 C.3     1  UNL1        0.0294
     19 C         140.4484  144.6238  160.2488 C.3     1  UNL1        0.0666
     20 S         139.7918  143.2892  160.0548 S.3     1  UNL1       -0.0756
     21 C         138.5294  141.2308  163.0937 C.ar    1  UNL1        0.2029
     22 N         137.3215  142.0657  162.7872 N.ar    1  UNL1       -0.1250
     23 N         137.6474  142.9384  161.6115 N.ar    1  UNL1       -0.1220
     24 C         139.0567  142.6428  161.1914 C.ar    1  UNL1        0.1933
     25 N         139.6018  141.5875  162.1074 N.ar    1  UNL1       -0.2860
     26 C         140.9778  140.9932  162.0477 C.3     1  UNL1        0.1341
     27 C         138.6450  137.9918  162.7126 C.3     1  UNL1        0.0556
     28 C         138.6977  138.7284  164.0182 C.ar    1  UNL1        0.1001
     29 N         138.8129  138.1055  165.3779 N.ar    1  UNL1       -0.2085
     30 C         138.8309  139.2094  166.3935 C.ar    1  UNL1        0.2849
     31 O         138.7269  140.5144  165.6614 O.2     1  UNL1       -0.4283
     32 C         138.6446  140.2172  164.1934 C.ar    1  UNL1        0.1964
@<TRIPOS>BOND
     1    27    28    1
     2    28    29   ar
     3    29    30   ar
     4    30    31   ar
     5    31    32   ar
     6    32    21    1
     7    21    22   ar
     8    22    23   ar
     9    23    24   ar
    10    24    20    1
    11    20    19    1
    12    19    18    1
    13    18     1    1
    14     1     2    1
    15     2     3    1
    16     3     4    1
    17     4     5    1
    18     5     6    1
    19     6     7    1
    20     7    10    1
    21    10    11   ar
    22    11    12   ar
    23    12    13   ar
    24    13    14   ar
    25    14    16    1
    26    16    17    3
    27    14    15   ar
    28     7     8    1
    29     8     9    1
    30    24    25   ar
    31    25    26    1
    32    32    28   ar
    33    25    21   ar
    34     9     2    1
    35     8     4    1
    36    15    10   ar
@<TRIPOS>MOLECULE
*****
 32 36 0 0 0
SMALL
GASTEIGER

@<TRIPOS>ATOM
      1 C         138.6321  144.5686  163.4287 C.3     1  UNL1        0.0731
      2 N         138.6985  143.2347  164.1114 N.3     1  UNL1       -0.2712
      3 C         138.2210  141.9300  163.5458 C.3     1  UNL1        0.0738
      4 C         138.4815  140.8602  164.5645 C.3     1  UNL1        0.0372
      5 C         138.3473  139.3927  164.8445 C.3     1  UNL1        0.0245
      6 C         138.9029  139.1291  166.2127 C.3     1  UNL1        0.0909
      7 N         139.3804  140.4338  166.7783 N.pl3   1  UNL1       -0.3077
      8 C         139.1199  141.5037  165.7596 C.3     1  UNL1        0.0901
      9 C         139.2541  142.9712  165.4796 C.3     1  UNL1        0.0921
     10 C         140.0082  140.6336  168.1259 C.ar    1  UNL1        0.0485
     11 C         139.3054  140.1503  169.3597 C.ar    1  UNL1        0.0146
     12 C         139.9331  140.3500  170.7073 C.ar    1  UNL1        0.0020
     13 C         141.2637  141.0331  170.8211 C.ar    1  UNL1        0.0104
     14 C         141.9665  141.5164  169.5872 C.ar    1  UNL1        0.0697
     15 C         141.3388  141.3167  168.2396 C.ar    1  UNL1        0.0248
     16 C         143.2971  142.1995  169.7009 C.1     1  UNL1        0.1005
     17 N         144.6276  142.8826  169.8147 N.1     1  UNL1       -0.1908
     18 C         139.6389  144.9226  162.3747 C.3     1  UNL1        0.0294
     19 C         140.9916  145.4353  162.7715 C.3     1  UNL1        0.0666
     20 S         142.2033  144.5688  162.5956 S.3     1  UNL1       -0.0756
     21 C         142.1815  140.9430  163.9809 C.ar    1  UNL1        0.2029
     22 N         142.8452  141.6795  165.1067 N.ar    1  UNL1       -0.1250
     23 N         142.9341  143.1274  164.7247 N.ar    1  UNL1       -0.1220
     24 C         142.3254  143.2857  163.3630 C.ar    1  UNL1        0.1933
     25 N         141.8603  141.9358  162.9032 N.ar    1  UNL1       -0.2860
     26 C         141.1914  141.6319  161.5955 C.3     1  UNL1        0.1341
     27 C         143.0252  138.7567  166.2520 C.3     1  UNL1        0.0556
     28 C         142.2781  138.4672  164.9840 C.ar    1  UNL1        0.1001
     29 N         141.7875  137.1220  164.5371 N.ar    1  UNL1       -0.2085
     30 C         141.0966  137.2955  163.2171 C.ar    1  UNL1        0.2849
     31 O         141.1601  138.7480  162.8481 O.2     1  UNL1       -0.4283
     32 C         141.8903  139.4721  163.9401 C.ar    1  UNL1        0.1964
@<TRIPOS>BOND
     1    27    28    1
     2    28    29   ar
     3    29    30   ar
     4    30    31   ar
     5    31    32   ar
     6    32    21    1
     7    21    22   ar
     8    22    23   ar
     9    23    24   ar
    10    24    20    1
    11    20    19    1
    12    19    18    1
    13    18     1    1
    14     1     2    1
    15     2     3    1
    16     3     4    1
    17     4     5    1
    18     5     6    1
    19     6     7    1
    20     7    10    1
    21    10    11   ar
    22    11    12   ar
    23    12    13   ar
    24    13    14   ar
    25    14    16    1
    26    16    17    3
    27    14    15   ar
    28     7     8    1
    29     8     9    1
    30    24    25   ar
    31    25    26    1
    32    32    28   ar
    33    25    21   ar
    34     9     2    1
    35     8     4    1
    36    15    10   ar
@<TRIPOS>MOLECULE
*****
 32 36 0 0 0
SMALL
GASTEIGER

@<TRIPOS>ATOM
      1 C         139.4374  145.8828  161.8166 C.3     1  UNL1        0.0731
      2 N         139.2967  144.6777  162.6986 N.3     1  UNL1       -0.2712
      3 C         138.3033  143.5677  162.5229 C.3     1  UNL1        0.0738
      4 C         138.5174  142.5750  163.6269 C.3     1  UNL1        0.0372
      5 C         138.0358  141.2755  164.2006 C.3     1  UNL1        0.0245
      6 C         138.8638  140.9688  165.4132 C.3     1  UNL1        0.0909
      7 N         139.8573  142.0790  165.5889 N.pl3   1  UNL1       -0.3077
      8 C         139.6431  143.0716  164.4849 C.3     1  UNL1        0.0901
      9 C         140.1248  144.3712  163.9112 C.3     1  UNL1        0.0921
     10 C         140.8844  142.1789  166.6774 C.ar    1  UNL1        0.0485
     11 C         142.3337  142.3452  166.3282 C.ar    1  UNL1        0.0146
     12 C         143.3608  142.4451  167.4167 C.ar    1  UNL1        0.0020
     13 C         142.9387  142.3787  168.8546 C.ar    1  UNL1        0.0104
     14 C         141.4894  142.2124  169.2039 C.ar    1  UNL1        0.0697
     15 C         140.4623  142.1125  168.1153 C.ar    1  UNL1        0.0248
     16 C         141.0674  142.1460  170.6417 C.1     1  UNL1        0.1005
     17 N         140.6453  142.0796  172.0796 N.1     1  UNL1       -0.1908
     18 C         140.3670  145.8467  160.6400 C.3     1  UNL1        0.0294
     19 C         140.3045  144.7047  159.6694 C.3     1  UNL1        0.0666
     20 S         141.4738  143.7759  159.5278 S.3     1  UNL1       -0.0756
     21 C         142.6775  141.6684  162.5570 C.ar    1  UNL1        0.2029
     22 N         143.5309  142.8939  162.6989 N.ar    1  UNL1       -0.1250
     23 N         143.1839  143.8324  161.5815 N.ar    1  UNL1       -0.1220
     24 C         142.1160  143.1871  160.7489 C.ar    1  UNL1        0.1933
     25 N         141.8030  141.8498  161.3517 N.ar    1  UNL1       -0.2860
     26 C         140.7929  140.8663  160.8394 C.3     1  UNL1        0.1341
     27 C         145.3009  140.4371  164.0573 C.3     1  UNL1        0.0556
     28 C         143.9013  139.9059  164.1510 C.ar    1  UNL1        0.1001
     29 N         143.4617  138.7155  164.9508 N.ar    1  UNL1       -0.2085
     30 C         141.9842  138.5457  164.7554 C.ar    1  UNL1        0.2849
     31 O         141.5106  139.6313  163.8349 O.2     1  UNL1       -0.4283
     32 C         142.6954  140.4719  163.4614 C.ar    1  UNL1        0.1964
@<TRIPOS>BOND
     1    27    28    1
     2    28    29   ar
     3    29    30   ar
     4    30    31   ar
     5    31    32   ar
     6    32    21    1
     7    21    22   ar
     8    22    23   ar
     9    23    24   ar
    10    24    20    1
    11    20    19    1
    12    19    18    1
    13    18     1    1
    14     1     2    1
    15     2     3    1
    16     3     4    1
    17     4     5    1
    18     5     6    1
    19     6     7    1
    20     7    10    1
    21    10    11   ar
    22    11    12   ar
    23    12    13   ar
    24    13    14   ar
    25    14    16    1
    26    16    17    3
    27    14    15   ar
    28     7     8    1
    29     8     9    1
    30    24    25   ar
    31    25    26    1
    32    32    28   ar
    33    25    21   ar
    34     9     2    1
    35     8     4    1
    36    15    10   ar
@<TRIPOS>MOLECULE
*****
 32 36 0 0 0
SMALL
GASTEIGER

@<TRIPOS>ATOM
      1 C         137.8534  139.3830  162.1254 C.3     1  UNL1        0.0731
      2 N         138.1172  140.6122  162.9437 N.3     1  UNL1       -0.2712
      3 C         137.4163  141.9311  162.8049 C.3     1  UNL1        0.0738
      4 C         137.9942  142.8722  163.8199 C.3     1  UNL1        0.0372
      5 C         137.9182  144.2690  164.3614 C.3     1  UNL1        0.0245
      6 C         138.9293  144.3951  165.4622 C.3     1  UNL1        0.0909
      7 N         139.6302  143.0761  165.6010 N.pl3   1  UNL1       -0.3077
      8 C         139.0523  142.1350  164.5860 C.3     1  UNL1        0.0901
      9 C         139.1283  140.7382  164.0445 C.3     1  UNL1        0.0921
     10 C         140.7181  142.7548  166.5826 C.ar    1  UNL1        0.0485
     11 C         142.1232  142.5432  166.1022 C.ar    1  UNL1        0.0146
     12 C         143.2110  142.2218  167.0837 C.ar    1  UNL1        0.0020
     13 C         142.8937  142.1122  168.5456 C.ar    1  UNL1        0.0104
     14 C         141.4886  142.3238  169.0261 C.ar    1  UNL1        0.0697
     15 C         140.4007  142.6451  168.0446 C.ar    1  UNL1        0.0248
     16 C         141.1713  142.2141  170.4880 C.1     1  UNL1        0.1005
     17 N         140.8540  142.1044  171.9499 N.1     1  UNL1       -0.1908
     18 C         137.3374  139.5122  160.7229 C.3     1  UNL1        0.0294
     19 C         138.1033  140.3143  159.7128 C.3     1  UNL1        0.0666
     20 S         139.4564  139.8528  159.2586 S.3     1  UNL1       -0.0756
     21 C         142.0962  138.9644  161.9618 C.ar    1  UNL1        0.2029
     22 N         141.6402  137.5984  161.5419 N.ar    1  UNL1       -0.1250
     23 N         140.5958  137.7650  160.4782 N.ar    1  UNL1       -0.1220
     24 C         140.4063  139.2339  160.2406 C.ar    1  UNL1        0.1933
     25 N         141.3336  139.9752  161.1575 N.ar    1  UNL1       -0.2860
     26 C         141.4737  141.4655  161.2533 C.3     1  UNL1        0.1341
     27 C         142.0159  138.0107  165.0817 C.3     1  UNL1        0.0556
     28 C         143.0958  138.8282  164.4371 C.ar    1  UNL1        0.1001
     29 N         144.3285  139.3508  165.1134 N.ar    1  UNL1       -0.2085
     30 C         145.1273  140.1121  164.0974 C.ar    1  UNL1        0.2849
     31 O         144.3883  140.0600  162.7931 O.2     1  UNL1       -0.4283
     32 C         143.1328  139.2665  163.0031 C.ar    1  UNL1        0.1964
@<TRIPOS>BOND
     1    27    28    1
     2    28    29   ar
     3    29    30   ar
     4    30    31   ar
     5    31    32   ar
     6    32    21    1
     7    21    22   ar
     8    22    23   ar
     9    23    24   ar
    10    24    20    1
    11    20    19    1
    12    19    18    1
    13    18     1    1
    14     1     2    1
    15     2     3    1
    16     3     4    1
    17     4     5    1
    18     5     6    1
    19     6     7    1
    20     7    10    1
    21    10    11   ar
    22    11    12   ar
    23    12    13   ar
    24    13    14   ar
    25    14    16    1
    26    16    17    3
    27    14    15   ar
    28     7     8    1
    29     8     9    1
    30    24    25   ar
    31    25    26    1
    32    32    28   ar
    33    25    21   ar
    34     9     2    1
    35     8     4    1
    36    15    10   ar
@<TRIPOS>MOLECULE
*****
 32 36 0 0 0
SMALL
GASTEIGER

@<TRIPOS>ATOM
      1 C         144.0845  138.5982  161.6357 C.3     1  UNL1        0.0731
      2 N         143.9796  139.6195  162.7292 N.3     1  UNL1       -0.2712
      3 C         144.8226  140.8524  162.8680 C.3     1  UNL1        0.0738
      4 C         144.3772  141.5821  164.1006 C.3     1  UNL1        0.0372
      5 C         144.6229  142.7951  164.9481 C.3     1  UNL1        0.0245
      6 C         143.6565  142.7628  166.0949 C.3     1  UNL1        0.0909
      7 N         142.8135  141.5298  165.9561 N.pl3   1  UNL1       -0.3077
      8 C         143.2589  140.8002  164.7236 C.3     1  UNL1        0.0901
      9 C         143.0132  139.5872  163.8760 C.3     1  UNL1        0.0921
     10 C         141.7176  141.1017  166.8865 C.ar    1  UNL1        0.0485
     11 C         140.6312  140.1908  166.3968 C.ar    1  UNL1        0.0146
     12 C         139.5353  139.7627  167.3273 C.ar    1  UNL1        0.0020
     13 C         139.5257  140.2456  168.7473 C.ar    1  UNL1        0.0104
     14 C         140.6121  141.1566  169.2371 C.ar    1  UNL1        0.0697
     15 C         141.7081  141.5847  168.3067 C.ar    1  UNL1        0.0248
     16 C         140.6026  141.6395  170.6572 C.1     1  UNL1        0.1005
     17 N         140.5930  142.1224  172.0772 N.1     1  UNL1       -0.1908
     18 C         143.2149  138.7104  160.4187 C.3     1  UNL1        0.0294
     19 C         143.6420  139.5735  159.2685 C.3     1  UNL1        0.0666
     20 S         142.8671  140.8131  158.9328 S.3     1  UNL1       -0.0756
     21 C         141.7021  143.1774  161.7821 C.ar    1  UNL1        0.2029
     22 N         142.9859  143.8335  161.3677 N.ar    1  UNL1       -0.1250
     23 N         143.5785  143.0276  160.2499 N.ar    1  UNL1       -0.1220
     24 C         142.6610  141.8736  159.9735 C.ar    1  UNL1        0.1933
     25 N         141.5014  141.9661  160.9204 N.ar    1  UNL1       -0.2860
     26 C         140.3442  141.0145  160.9929 C.3     1  UNL1        0.1341
     27 C         140.1067  146.0237  161.8404 C.3     1  UNL1        0.0556
     28 C         140.0476  144.9580  162.8944 C.ar    1  UNL1        0.1001
     29 N         139.2448  145.0135  164.1602 N.ar    1  UNL1       -0.2085
     30 C         139.4819  143.7396  164.9158 C.ar    1  UNL1        0.2849
     31 O         140.4313  142.8967  164.1169 O.2     1  UNL1       -0.4283
     32 C         140.7809  143.6498  162.8676 C.ar    1  UNL1        0.1964
@<TRIPOS>BOND
     1    27    28    1
     2    28    29   ar
     3    29    30   ar
     4    30    31   ar
     5    31    32   ar
     6    32    21    1
     7    21    22   ar
     8    22    23   ar
     9    23    24   ar
    10    24    20    1
    11    20    19    1
    12    19    18    1
    13    18     1    1
    14     1     2    1
    15     2     3    1
    16     3     4    1
    17     4     5    1
    18     5     6    1
    19     6     7    1
    20     7    10    1
    21    10    11   ar
    22    11    12   ar
    23    12    13   ar
    24    13    14   ar
    25    14    16    1
    26    16    17    3
    27    14    15   ar
    28     7     8    1
    29     8     9    1
    30    24    25   ar
    31    25    26    1
    32    32    28   ar
    33    25    21   ar
    34     9     2    1
    35     8     4    1
    36    15    10   ar
@<TRIPOS>MOLECULE
*****
 32 36 0 0 0
SMALL
GASTEIGER

@<TRIPOS>ATOM
      1 C         139.9509  145.4238  161.8728 C.3     1  UNL1        0.0731
      2 N         140.8459  144.7361  162.8607 N.3     1  UNL1       -0.2712
      3 C         142.3451  144.7814  162.8728 C.3     1  UNL1        0.0738
      4 C         142.8245  143.9557  164.0297 C.3     1  UNL1        0.0372
      5 C         144.0474  143.4734  164.7521 C.3     1  UNL1        0.0245
      6 C         143.6003  142.6195  165.9015 C.3     1  UNL1        0.0909
      7 N         142.1009  142.5742  165.8894 N.pl3   1  UNL1       -0.3077
      8 C         141.6215  143.4000  164.7326 C.3     1  UNL1        0.0901
      9 C         140.3987  143.8823  164.0101 C.3     1  UNL1        0.0921
     10 C         141.2334  141.8332  166.8632 C.ar    1  UNL1        0.0485
     11 C         140.3356  140.7325  166.3811 C.ar    1  UNL1        0.0146
     12 C         139.4681  139.9914  167.3549 C.ar    1  UNL1        0.0020
     13 C         139.4983  140.3511  168.8108 C.ar    1  UNL1        0.0104
     14 C         140.3960  141.4519  169.2929 C.ar    1  UNL1        0.0697
     15 C         141.2636  142.1929  168.3191 C.ar    1  UNL1        0.0248
     16 C         140.4262  141.8116  170.7488 C.1     1  UNL1        0.1005
     17 N         140.4564  142.1713  172.2047 N.1     1  UNL1       -0.1908
     18 C         140.3873  145.5777  160.4459 C.3     1  UNL1        0.0294
     19 C         140.0577  144.5133  159.4417 C.3     1  UNL1        0.0666
     20 S         140.8019  143.2111  159.4575 S.3     1  UNL1       -0.0756
     21 C         140.8501  140.5443  162.2773 C.ar    1  UNL1        0.2029
     22 N         139.3759  140.7710  162.1178 N.ar    1  UNL1       -0.1250
     23 N         139.1784  141.7975  161.0421 N.ar    1  UNL1       -0.1220
     24 C         140.5306  142.2053  160.5368 C.ar    1  UNL1        0.1933
     25 N         141.5637  141.4308  161.3001 N.ar    1  UNL1       -0.2860
     26 C         143.0496  141.5260  161.1183 C.3     1  UNL1        0.1341
     27 C         139.7193  137.6044  163.1306 C.3     1  UNL1        0.0556
     28 C         140.9773  138.2461  163.6364 C.ar    1  UNL1        0.1001
     29 N         141.9363  137.6491  164.6232 N.ar    1  UNL1       -0.2085
     30 C         143.0488  138.6314  164.8409 C.ar    1  UNL1        0.2849
     31 O         142.7773  139.8355  163.9886 O.2     1  UNL1       -0.4283
     32 C         141.4970  139.5973  163.2442 C.ar    1  UNL1        0.1964
@<TRIPOS>BOND
     1    27    28    1
     2    28    29   ar
     3    29    30   ar
     4    30    31   ar
     5    31    32   ar
     6    32    21    1
     7    21    22   ar
     8    22    23   ar
     9    23    24   ar
    10    24    20    1
    11    20    19    1
    12    19    18    1
    13    18     1    1
    14     1     2    1
    15     2     3    1
    16     3     4    1
    17     4     5    1
    18     5     6    1
    19     6     7    1
    20     7    10    1
    21    10    11   ar
    22    11    12   ar
    23    12    13   ar
    24    13    14   ar
    25    14    16    1
    26    16    17    3
    27    14    15   ar
    28     7     8    1
    29     8     9    1
    30    24    25   ar
    31    25    26    1
    32    32    28   ar
    33    25    21   ar
    34     9     2    1
    35     8     4    1
    36    15    10   ar
@<TRIPOS>MOLECULE
*****
 32 36 0 0 0
SMALL
GASTEIGER

@<TRIPOS>ATOM
      1 C         144.4107  143.4633  162.9506 C.3     1  UNL1        0.0731
      2 N         144.0463  142.3781  163.9199 N.3     1  UNL1       -0.2712
      3 C         144.4677  140.9411  163.8340 C.3     1  UNL1        0.0738
      4 C         143.8784  140.2144  165.0063 C.3     1  UNL1        0.0372
      5 C         143.7746  138.8771  165.6778 C.3     1  UNL1        0.0245
      6 C         142.9247  139.0383  166.9033 C.3     1  UNL1        0.0909
      7 N         142.5033  140.4754  166.9892 N.pl3   1  UNL1       -0.3077
      8 C         143.0927  141.2022  165.8168 C.3     1  UNL1        0.0901
      9 C         143.1965  142.5395  165.1454 C.3     1  UNL1        0.0921
     10 C         141.6435  141.0796  168.0596 C.ar    1  UNL1        0.0485
     11 C         141.9613  142.4439  168.5958 C.ar    1  UNL1        0.0146
     12 C         141.1015  143.0480  169.6662 C.ar    1  UNL1        0.0020
     13 C         139.9239  142.2879  170.2003 C.ar    1  UNL1        0.0104
     14 C         139.6060  140.9235  169.6641 C.ar    1  UNL1        0.0697
     15 C         140.4658  140.3193  168.5937 C.ar    1  UNL1        0.0248
     16 C         138.4284  140.1633  170.1982 C.1     1  UNL1        0.1005
     17 N         137.2508  139.4032  170.7324 N.1     1  UNL1       -0.1908
     18 C         143.4054  143.9381  161.9437 C.3     1  UNL1        0.0294
     19 C         142.2842  144.8387  162.3703 C.3     1  UNL1        0.0666
     20 S         140.9413  144.7281  161.7114 S.3     1  UNL1       -0.0756
     21 C         138.8691  141.5435  162.5053 C.ar    1  UNL1        0.2029
     22 N         138.0699  142.5944  163.2173 N.ar    1  UNL1       -0.1250
     23 N         138.7489  143.9153  163.0066 N.ar    1  UNL1       -0.1220
     24 C         139.9677  143.6807  162.1643 C.ar    1  UNL1        0.1933
     25 N         140.0421  142.2150  161.8545 N.ar    1  UNL1       -0.2860
     26 C         141.1030  141.5392  161.0373 C.3     1  UNL1        0.1341
     27 C         139.9879  139.2639  164.5550 C.3     1  UNL1        0.0556
     28 C         139.0655  139.0307  163.3954 C.ar    1  UNL1        0.1001
     29 N         138.4953  137.7087  162.9742 N.ar    1  UNL1       -0.2085
     30 C         137.6287  137.9395  161.7718 C.ar    1  UNL1        0.2849
     31 O         137.6633  139.4041  161.4498 O.2     1  UNL1       -0.4283
     32 C         138.5512  140.0785  162.4532 C.ar    1  UNL1        0.1964
@<TRIPOS>BOND
     1    27    28    1
     2    28    29   ar
     3    29    30   ar
     4    30    31   ar
     5    31    32   ar
     6    32    21    1
     7    21    22   ar
     8    22    23   ar
     9    23    24   ar
    10    24    20    1
    11    20    19    1
    12    19    18    1
    13    18     1    1
    14     1     2    1
    15     2     3    1
    16     3     4    1
    17     4     5    1
    18     5     6    1
    19     6     7    1
    20     7    10    1
    21    10    11   ar
    22    11    12   ar
    23    12    13   ar
    24    13    14   ar
    25    14    16    1
    26    16    17    3
    27    14    15   ar
    28     7     8    1
    29     8     9    1
    30    24    25   ar
    31    25    26    1
    32    32    28   ar
    33    25    21   ar
    34     9     2    1
    35     8     4    1
    36    15    10   ar
