@<TRIPOS>MOLECULE
*****
 26 28 0 0 0
SMALL
GASTEIGER

@<TRIPOS>ATOM
      1 C         140.9081  144.6154  163.2826 C.3     1  UNL1        0.0716
      2 C         141.9107  143.5869  163.7152 C.3     1  UNL1        0.0199
      3 C         141.6797  142.7949  164.9680 C.3     1  UNL1        0.0060
      4 C         140.4462  143.0314  165.7881 C.3     1  UNL1        0.0224
      5 C         139.4437  144.0599  165.3554 C.3     1  UNL1        0.0060
      6 C         139.6746  144.8518  164.1027 C.3     1  UNL1        0.0199
      7 C         140.2152  142.2394  167.0409 C.ar    1  UNL1       -0.0223
      8 C         140.4574  142.8681  168.3810 C.ar    1  UNL1       -0.0012
      9 C         140.2264  142.0760  169.6338 C.ar    1  UNL1        0.0363
     10 C         139.7534  140.6553  169.5463 C.ar    1  UNL1        0.1337
     11 O         139.5224  139.8632  170.7990 O.3     1  UNL1       -0.5055
     12 C         139.5112  140.0266  168.2061 C.ar    1  UNL1        0.0363
     13 C         139.7422  140.8186  166.9534 C.ar    1  UNL1       -0.0012
     14 H         139.6737  140.2560  171.6362 H       1  UNL1        0.2922
     15 C         140.3251  145.1236  160.8023 C.2     1  UNL1        0.2228
     16 O         139.2801  144.0477  160.8275 O.2     1  UNL1       -0.2751
     17 N         141.1391  145.4074  162.0298 N.am    1  UNL1       -0.3060
     18 H         141.8249  146.1135  162.0133 H       1  UNL1        0.1494
     19 C         140.5560  145.9156  159.5495 C.3     1  UNL1        0.0919
     20 C         140.3733  145.2686  158.2087 C.3     1  UNL1        0.0621
     21 C         140.7660  147.2922  153.3475 C.3     1  UNL1        0.0398
     22 C         140.3204  147.0455  154.7584 C.ar    1  UNL1        0.0278
     23 C         139.2409  147.7916  155.4852 C.ar    1  UNL1        0.1012
     24 N         139.1293  147.2167  156.8662 N.ar    1  UNL1       -0.2415
     25 C         140.1399  146.1154  156.9929 C.ar    1  UNL1        0.0884
     26 S         140.8759  146.0096  155.6902 S.2     1  UNL1       -0.0751
@<TRIPOS>BOND
     1    21    22    1
     2    22    23   ar
     3    23    24   ar
     4    24    25   ar
     5    25    20    1
     6    20    19    1
     7    19    15    1
     8    15    16    2
     9    15    17   am
    10     1    17    1
    11     1     2    1
    12     2     3    1
    13     3     4    1
    14     4     7    1
    15     7     8   ar
    16     8     9   ar
    17     9    10   ar
    18    10    11    1
    19    10    12   ar
    20    12    13   ar
    21     4     5    1
    22     5     6    1
    23    25    26   ar
    24    26    22   ar
    25     6     1    1
    26    13     7   ar
    27    17    18    1
    28    11    14    1
@<TRIPOS>MOLECULE
*****
 26 28 0 0 0
SMALL
GASTEIGER

@<TRIPOS>ATOM
      1 C         138.2281  140.2100  163.9911 C.3     1  UNL1        0.0716
      2 C         138.4292  138.9566  164.7901 C.3     1  UNL1        0.0199
      3 C         139.1178  139.0182  166.1213 C.3     1  UNL1        0.0060
      4 C         139.6052  140.3333  166.6534 C.3     1  UNL1        0.0224
      5 C         139.4041  141.5866  165.8543 C.3     1  UNL1        0.0060
      6 C         138.7156  141.5250  164.5232 C.3     1  UNL1        0.0199
      7 C         140.2938  140.3948  167.9846 C.ar    1  UNL1       -0.0223
      8 C         141.7900  140.4780  168.0520 C.ar    1  UNL1       -0.0012
      9 C         142.4785  140.5396  169.3832 C.ar    1  UNL1        0.0363
     10 C         141.6709  140.5180  170.6471 C.ar    1  UNL1        0.1337
     11 O         142.3594  140.5796  171.9783 O.3     1  UNL1       -0.5055
     12 C         140.1747  140.4348  170.5796 C.ar    1  UNL1        0.0363
     13 C         139.4862  140.3733  169.2485 C.ar    1  UNL1       -0.0012
     14 H         143.2940  140.6315  172.0204 H       1  UNL1        0.2922
     15 C         138.3479  140.0266  161.4022 C.2     1  UNL1        0.2228
     16 O         139.8449  139.9663  161.4758 O.2     1  UNL1       -0.2751
     17 N         137.5395  140.1484  162.6598 N.am    1  UNL1       -0.3060
     18 H         136.5570  140.1880  162.6115 H       1  UNL1        0.1494
     19 C         137.6593  139.9650  160.0710 C.3     1  UNL1        0.0919
     20 C         138.3886  140.3848  158.8292 C.3     1  UNL1        0.0621
     21 C         136.9130  143.8581  155.1362 C.3     1  UNL1        0.0398
     22 C         136.9636  142.6399  156.0099 C.ar    1  UNL1        0.0278
     23 C         136.0218  141.4737  155.9521 C.ar    1  UNL1        0.1012
     24 N         136.4410  140.4870  157.0013 N.ar    1  UNL1       -0.2415
     25 C         137.6419  141.0433  157.7074 C.ar    1  UNL1        0.0884
     26 S         137.9648  142.3738  157.0947 S.2     1  UNL1       -0.0751
@<TRIPOS>BOND
     1    21    22    1
     2    22    23   ar
     3    23    24   ar
     4    24    25   ar
     5    25    20    1
     6    20    19    1
     7    19    15    1
     8    15    16    2
     9    15    17   am
    10     1    17    1
    11     1     2    1
    12     2     3    1
    13     3     4    1
    14     4     7    1
    15     7     8   ar
    16     8     9   ar
    17     9    10   ar
    18    10    11    1
    19    10    12   ar
    20    12    13   ar
    21     4     5    1
    22     5     6    1
    23    25    26   ar
    24    26    22   ar
    25     6     1    1
    26    13     7   ar
    27    17    18    1
    28    11    14    1
@<TRIPOS>MOLECULE
*****
 26 28 0 0 0
SMALL
GASTEIGER

@<TRIPOS>ATOM
      1 C         138.2504  140.5365  164.1778 C.3     1  UNL1        0.0716
      2 C         138.0954  139.3801  165.1204 C.3     1  UNL1        0.0199
      3 C         138.7908  139.3974  166.4494 C.3     1  UNL1        0.0060
      4 C         139.6412  140.5712  166.8356 C.3     1  UNL1        0.0224
      5 C         139.7961  141.7276  165.8930 C.3     1  UNL1        0.0060
      6 C         139.1007  141.7103  164.5641 C.3     1  UNL1        0.0199
      7 C         140.3366  140.5885  168.1647 C.ar    1  UNL1       -0.0223
      8 C         139.5543  140.3576  169.4235 C.ar    1  UNL1       -0.0012
      9 C         140.2497  140.3748  170.7525 C.ar    1  UNL1        0.0363
     10 C         141.7274  140.6231  170.8226 C.ar    1  UNL1        0.1337
     11 O         142.4228  140.6404  172.1515 O.3     1  UNL1       -0.5055
     12 C         142.5096  140.8540  169.5637 C.ar    1  UNL1        0.0363
     13 C         141.8142  140.8367  168.2347 C.ar    1  UNL1       -0.0012
     14 H         141.9341  140.4961  172.9379 H       1  UNL1        0.2922
     15 C         138.0793  139.6568  161.7392 C.2     1  UNL1        0.2228
     16 O         139.2989  138.8116  161.9585 O.2     1  UNL1       -0.2751
     17 N         137.5550  140.5192  162.8488 N.am    1  UNL1       -0.3060
     18 H         136.7545  141.0739  162.7048 H       1  UNL1        0.1494
     19 C         137.3839  139.6395  160.4101 C.3     1  UNL1        0.0919
     20 C         137.8138  140.5832  159.3264 C.3     1  UNL1        0.0621
     21 C         142.0911  143.6785  159.3957 C.3     1  UNL1        0.0398
     22 C         140.7229  143.1292  159.6725 C.ar    1  UNL1        0.0278
     23 C         139.6935  143.7408  160.5760 C.ar    1  UNL1        0.1012
     24 N         138.4784  142.8615  160.5563 N.ar    1  UNL1       -0.2415
     25 C         138.7569  141.7065  159.6406 C.ar    1  UNL1        0.0884
     26 S         140.1441  141.8719  159.0945 S.2     1  UNL1       -0.0751
@<TRIPOS>BOND
     1    21    22    1
     2    22    23   ar
     3    23    24   ar
     4    24    25   ar
     5    25    20    1
     6    20    19    1
     7    19    15    1
     8    15    16    2
     9    15    17   am
    10     1    17    1
    11     1     2    1
    12     2     3    1
    13     3     4    1
    14     4     7    1
    15     7     8   ar
    16     8     9   ar
    17     9    10   ar
    18    10    11    1
    19    10    12   ar
    20    12    13   ar
    21     4     5    1
    22     5     6    1
    23    25    26   ar
    24    26    22   ar
    25     6     1    1
    26    13     7   ar
    27    17    18    1
    28    11    14    1
@<TRIPOS>MOLECULE
*****
 26 28 0 0 0
SMALL
GASTEIGER

@<TRIPOS>ATOM
      1 C         140.8903  144.5489  163.4990 C.3     1  UNL1        0.0716
      2 C         141.8909  143.5205  163.9365 C.3     1  UNL1        0.0199
      3 C         141.6584  142.7350  165.1930 C.3     1  UNL1        0.0060
      4 C         140.4255  142.9778  166.0121 C.3     1  UNL1        0.0224
      5 C         139.4250  144.0062  165.5746 C.3     1  UNL1        0.0060
      6 C         139.6574  144.7917  164.3181 C.3     1  UNL1        0.0199
      7 C         140.1931  142.1922  167.2686 C.ar    1  UNL1       -0.0223
      8 C         140.3939  142.8404  168.6063 C.ar    1  UNL1       -0.0012
      9 C         140.1615  142.0548  169.8629 C.ar    1  UNL1        0.0363
     10 C         139.7283  140.6210  169.7817 C.ar    1  UNL1        0.1337
     11 O         139.4959  139.8354  171.0381 O.3     1  UNL1       -0.5055
     12 C         139.5276  139.9728  168.4439 C.ar    1  UNL1        0.0363
     13 C         139.7599  140.7584  167.1874 C.ar    1  UNL1       -0.0012
     14 H         139.6213  140.2403  171.8738 H       1  UNL1        0.2922
     15 C         140.2690  145.0867  161.0343 C.2     1  UNL1        0.2228
     16 O         139.1828  144.0533  161.0827 O.2     1  UNL1       -0.2751
     17 N         141.1227  145.3345  162.2425 N.am    1  UNL1       -0.3060
     18 H         141.8356  146.0127  162.2107 H       1  UNL1        0.1494
     19 C         140.5014  145.8723  159.7778 C.3     1  UNL1        0.0919
     20 C         141.0676  145.1962  158.5645 C.3     1  UNL1        0.0621
     21 C         144.8735  141.7166  157.4298 C.3     1  UNL1        0.0398
     22 C         143.9414  142.6147  158.1878 C.ar    1  UNL1        0.0278
     23 C         143.9034  142.7908  159.6770 C.ar    1  UNL1        0.1012
     24 N         142.8222  143.7793  159.9993 N.ar    1  UNL1       -0.2415
     25 C         142.1921  144.2141  158.7094 C.ar    1  UNL1        0.0884
     26 S         142.8838  143.4943  157.5898 S.2     1  UNL1       -0.0751
@<TRIPOS>BOND
     1    21    22    1
     2    22    23   ar
     3    23    24   ar
     4    24    25   ar
     5    25    20    1
     6    20    19    1
     7    19    15    1
     8    15    16    2
     9    15    17   am
    10     1    17    1
    11     1     2    1
    12     2     3    1
    13     3     4    1
    14     4     7    1
    15     7     8   ar
    16     8     9   ar
    17     9    10   ar
    18    10    11    1
    19    10    12   ar
    20    12    13   ar
    21     4     5    1
    22     5     6    1
    23    25    26   ar
    24    26    22   ar
    25     6     1    1
    26    13     7   ar
    27    17    18    1
    28    11    14    1
@<TRIPOS>MOLECULE
*****
 26 28 0 0 0
SMALL
GASTEIGER

@<TRIPOS>ATOM
      1 C         139.1010  139.7123  164.1498 C.3     1  UNL1        0.0716
      2 C         140.2902  140.6203  164.2561 C.3     1  UNL1        0.0199
      3 C         140.7785  141.0620  165.6038 C.3     1  UNL1        0.0060
      4 C         140.0776  140.5957  166.8453 C.3     1  UNL1        0.0224
      5 C         138.8884  139.6877  166.7391 C.3     1  UNL1        0.0060
      6 C         138.4001  139.2460  165.3913 C.3     1  UNL1        0.0199
      7 C         140.5659  141.0375  168.1931 C.ar    1  UNL1       -0.0223
      8 C         140.9627  140.0172  169.2185 C.ar    1  UNL1       -0.0012
      9 C         141.4511  140.4589  170.5663 C.ar    1  UNL1        0.0363
     10 C         141.5425  141.9210  170.8886 C.ar    1  UNL1        0.1337
     11 O         142.0308  142.3628  172.2363 O.3     1  UNL1       -0.5055
     12 C         141.1457  142.9414  169.8631 C.ar    1  UNL1        0.0363
     13 C         140.6574  142.4996  168.5154 C.ar    1  UNL1       -0.0012
     14 H         142.2787  141.7254  172.8768 H       1  UNL1        0.2922
     15 C         137.7393  140.1772  161.9866 C.2     1  UNL1        0.2228
     16 O         137.3542  141.5257  162.5189 O.2     1  UNL1       -0.2751
     17 N         138.6127  139.2705  162.8020 N.am    1  UNL1       -0.3060
     18 H         138.8655  138.3855  162.4527 H       1  UNL1        0.1494
     19 C         137.2510  139.7355  160.6388 C.3     1  UNL1        0.0919
     20 C         137.8848  140.2836  159.3948 C.3     1  UNL1        0.0621
     21 C         142.5048  137.8634  158.5707 C.3     1  UNL1        0.0398
     22 C         141.1314  138.4273  158.3562 C.ar    1  UNL1        0.0278
     23 C         140.3407  138.3626  157.0831 C.ar    1  UNL1        0.1012
     24 N         139.0283  139.0502  157.3172 N.ar    1  UNL1       -0.2415
     25 C         139.0079  139.5397  158.7350 C.ar    1  UNL1        0.0884
     26 S         140.3076  139.1547  159.3771 S.2     1  UNL1       -0.0751
@<TRIPOS>BOND
     1    21    22    1
     2    22    23   ar
     3    23    24   ar
     4    24    25   ar
     5    25    20    1
     6    20    19    1
     7    19    15    1
     8    15    16    2
     9    15    17   am
    10     1    17    1
    11     1     2    1
    12     2     3    1
    13     3     4    1
    14     4     7    1
    15     7     8   ar
    16     8     9   ar
    17     9    10   ar
    18    10    11    1
    19    10    12   ar
    20    12    13   ar
    21     4     5    1
    22     5     6    1
    23    25    26   ar
    24    26    22   ar
    25     6     1    1
    26    13     7   ar
    27    17    18    1
    28    11    14    1
@<TRIPOS>MOLECULE
*****
 26 28 0 0 0
SMALL
GASTEIGER

@<TRIPOS>ATOM
      1 C         141.8442  138.1895  164.1283 C.3     1  UNL1        0.0716
      2 C         140.4742  138.6730  164.5015 C.3     1  UNL1        0.0199
      3 C         140.2479  139.3339  165.8288 C.3     1  UNL1        0.0060
      4 C         141.3916  139.5113  166.7830 C.3     1  UNL1        0.0224
      5 C         142.7616  139.0279  166.4098 C.3     1  UNL1        0.0060
      6 C         142.9879  138.3670  165.0825 C.3     1  UNL1        0.0199
      7 C         141.1652  140.1723  168.1105 C.ar    1  UNL1       -0.0223
      8 C         142.3300  140.7039  168.8919 C.ar    1  UNL1       -0.0012
      9 C         142.1036  141.3648  170.2193 C.ar    1  UNL1        0.0363
     10 C         140.7125  141.4941  170.7652 C.ar    1  UNL1        0.1337
     11 O         140.4861  142.1550  172.0926 O.3     1  UNL1       -0.5055
     12 C         139.5477  140.9624  169.9837 C.ar    1  UNL1        0.0363
     13 C         139.7741  140.3015  168.6564 C.ar    1  UNL1       -0.0012
     14 H         141.2136  142.4871  172.5808 H       1  UNL1        0.2922
     15 C         142.7331  138.2865  161.6889 C.2     1  UNL1        0.2228
     16 O         143.1693  139.7055  161.9043 O.2     1  UNL1       -0.2751
     17 N         142.0705  137.5286  162.8009 N.am    1  UNL1       -0.3060
     18 H         141.7842  136.5973  162.6595 H       1  UNL1        0.1494
     19 C         142.9595  137.6256  160.3615 C.3     1  UNL1        0.0919
     20 C         142.6564  138.3669  159.0932 C.3     1  UNL1        0.0621
     21 C         142.2056  134.9748  155.0719 C.3     1  UNL1        0.0398
     22 C         141.9122  136.0694  156.0547 C.ar    1  UNL1        0.0278
     23 C         140.6740  136.9154  156.0885 C.ar    1  UNL1        0.1012
     24 N         140.8021  137.8790  157.2308 N.ar    1  UNL1       -0.2415
     25 C         142.1194  137.6286  157.9030 C.ar    1  UNL1        0.0884
     26 S         142.8055  136.5102  157.1761 S.2     1  UNL1       -0.0751
@<TRIPOS>BOND
     1    21    22    1
     2    22    23   ar
     3    23    24   ar
     4    24    25   ar
     5    25    20    1
     6    20    19    1
     7    19    15    1
     8    15    16    2
     9    15    17   am
    10     1    17    1
    11     1     2    1
    12     2     3    1
    13     3     4    1
    14     4     7    1
    15     7     8   ar
    16     8     9   ar
    17     9    10   ar
    18    10    11    1
    19    10    12   ar
    20    12    13   ar
    21     4     5    1
    22     5     6    1
    23    25    26   ar
    24    26    22   ar
    25     6     1    1
    26    13     7   ar
    27    17    18    1
    28    11    14    1
@<TRIPOS>MOLECULE
*****
 26 28 0 0 0
SMALL
GASTEIGER

@<TRIPOS>ATOM
      1 C         141.9716  138.3202  164.2158 C.3     1  UNL1        0.0716
      2 C         143.0640  138.3662  165.2428 C.3     1  UNL1        0.0199
      3 C         142.8143  139.0087  166.5750 C.3     1  UNL1        0.0060
      4 C         141.4723  139.6053  166.8802 C.3     1  UNL1        0.0224
      5 C         140.3800  139.5593  165.8533 C.3     1  UNL1        0.0060
      6 C         140.6297  138.9168  164.5211 C.3     1  UNL1        0.0199
      7 C         141.2227  140.2478  168.2125 C.ar    1  UNL1       -0.0223
      8 C         142.3667  140.8225  168.9941 C.ar    1  UNL1       -0.0012
      9 C         142.1171  141.4651  170.3264 C.ar    1  UNL1        0.0363
     10 C         140.7234  141.5328  170.8770 C.ar    1  UNL1        0.1337
     11 O         140.4738  142.1753  172.2092 O.3     1  UNL1       -0.5055
     12 C         139.5794  140.9581  170.0953 C.ar    1  UNL1        0.0363
     13 C         139.8291  140.3156  168.7631 C.ar    1  UNL1       -0.0012
     14 H         141.1884  142.5343  172.6975 H       1  UNL1        0.2922
     15 C         143.1048  138.3547  161.8781 C.2     1  UNL1        0.2228
     16 O         143.7388  139.6743  162.2049 O.2     1  UNL1       -0.2751
     17 N         142.2213  137.6777  162.8835 N.am    1  UNL1       -0.3060
     18 H         141.8052  136.8116  162.6690 H       1  UNL1        0.1494
     19 C         143.3544  137.7122  160.5458 C.3     1  UNL1        0.0919
     20 C         142.4062  137.9512  159.4085 C.3     1  UNL1        0.0621
     21 C         138.7300  141.7376  159.2383 C.3     1  UNL1        0.0398
     22 C         139.4494  140.4611  159.5593 C.ar    1  UNL1        0.0278
     23 C         138.9293  139.3485  160.4205 C.ar    1  UNL1        0.1012
     24 N         139.9737  138.2729  160.4688 N.ar    1  UNL1       -0.2415
     25 C         141.1392  138.7207  159.6375 C.ar    1  UNL1        0.0884
     26 S         140.8152  140.0731  159.0753 S.2     1  UNL1       -0.0751
@<TRIPOS>BOND
     1    21    22    1
     2    22    23   ar
     3    23    24   ar
     4    24    25   ar
     5    25    20    1
     6    20    19    1
     7    19    15    1
     8    15    16    2
     9    15    17   am
    10     1    17    1
    11     1     2    1
    12     2     3    1
    13     3     4    1
    14     4     7    1
    15     7     8   ar
    16     8     9   ar
    17     9    10   ar
    18    10    11    1
    19    10    12   ar
    20    12    13   ar
    21     4     5    1
    22     5     6    1
    23    25    26   ar
    24    26    22   ar
    25     6     1    1
    26    13     7   ar
    27    17    18    1
    28    11    14    1
@<TRIPOS>MOLECULE
*****
 26 28 0 0 0
SMALL
GASTEIGER

@<TRIPOS>ATOM
      1 C         139.4591  140.2920  163.1414 C.3     1  UNL1        0.0716
      2 C         140.6481  141.0744  163.6147 C.3     1  UNL1        0.0199
      3 C         140.8143  141.3766  165.0745 C.3     1  UNL1        0.0060
      4 C         139.7915  140.8963  166.0609 C.3     1  UNL1        0.0224
      5 C         138.6025  140.1139  165.5876 C.3     1  UNL1        0.0060
      6 C         138.4363  139.8118  164.1278 C.3     1  UNL1        0.0199
      7 C         139.9577  141.1985  167.5208 C.ar    1  UNL1       -0.0223
      8 C         140.5791  142.4936  167.9526 C.ar    1  UNL1       -0.0012
      9 C         140.7453  142.7958  169.4125 C.ar    1  UNL1        0.0363
     10 C         140.2902  141.8027  170.4405 C.ar    1  UNL1        0.1337
     11 O         140.4564  142.1048  171.9003 O.3     1  UNL1       -0.5055
     12 C         139.6688  140.5075  170.0086 C.ar    1  UNL1        0.0363
     13 C         139.5026  140.2054  168.5488 C.ar    1  UNL1       -0.0012
     14 H         140.8445  142.9139  172.1701 H       1  UNL1        0.2922
     15 C         139.7442  138.6688  161.1329 C.2     1  UNL1        0.2228
     16 O         140.3617  137.6498  162.0441 O.2     1  UNL1       -0.2751
     17 N         139.2929  139.9899  161.6815 N.am    1  UNL1       -0.3060
     18 H         138.8876  140.6587  161.0834 H       1  UNL1        0.1494
     19 C         139.5780  138.3666  159.6730 C.3     1  UNL1        0.0919
     20 C         140.6009  138.8467  158.6866 C.3     1  UNL1        0.0621
     21 C         141.5424  135.4958  154.7159 C.3     1  UNL1        0.0398
     22 C         141.7156  136.3278  155.9520 C.ar    1  UNL1        0.0278
     23 C         142.9489  136.3962  156.8032 C.ar    1  UNL1        0.1012
     24 N         142.6814  137.3481  157.9311 N.ar    1  UNL1       -0.2415
     25 C         141.2828  137.8680  157.7771 C.ar    1  UNL1        0.0884
     26 S         140.6859  137.2375  156.5540 S.2     1  UNL1       -0.0751
@<TRIPOS>BOND
     1    21    22    1
     2    22    23   ar
     3    23    24   ar
     4    24    25   ar
     5    25    20    1
     6    20    19    1
     7    19    15    1
     8    15    16    2
     9    15    17   am
    10     1    17    1
    11     1     2    1
    12     2     3    1
    13     3     4    1
    14     4     7    1
    15     7     8   ar
    16     8     9   ar
    17     9    10   ar
    18    10    11    1
    19    10    12   ar
    20    12    13   ar
    21     4     5    1
    22     5     6    1
    23    25    26   ar
    24    26    22   ar
    25     6     1    1
    26    13     7   ar
    27    17    18    1
    28    11    14    1
@<TRIPOS>MOLECULE
*****
 26 28 0 0 0
SMALL
GASTEIGER

@<TRIPOS>ATOM
      1 C         143.1800  142.8343  163.6758 C.3     1  UNL1        0.0716
      2 C         141.8417  142.2057  163.9285 C.3     1  UNL1        0.0199
      3 C         141.4328  141.8489  165.3268 C.3     1  UNL1        0.0060
      4 C         142.3620  142.1208  166.4725 C.3     1  UNL1        0.0224
      5 C         143.7003  142.7494  166.2198 C.3     1  UNL1        0.0060
      6 C         144.1093  143.1061  164.8214 C.3     1  UNL1        0.0199
      7 C         141.9530  141.7639  167.8709 C.ar    1  UNL1       -0.0223
      8 C         142.9114  141.9651  169.0070 C.ar    1  UNL1       -0.0012
      9 C         142.5024  141.6082  170.4054 C.ar    1  UNL1        0.0363
     10 C         141.1349  141.0503  170.6676 C.ar    1  UNL1        0.1337
     11 O         140.7259  140.6935  172.0659 O.3     1  UNL1       -0.5055
     12 C         140.1765  140.8492  169.5313 C.ar    1  UNL1        0.0363
     13 C         140.5855  141.2060  168.1330 C.ar    1  UNL1       -0.0012
     14 H         141.3246  140.8191  172.7757 H       1  UNL1        0.2922
     15 C         144.4791  142.2691  161.4980 C.2     1  UNL1        0.2228
     16 O         144.9602  140.9902  162.1169 O.2     1  UNL1       -0.2751
     17 N         143.5890  143.1911  162.2774 N.am    1  UNL1       -0.3060
     18 H         143.2732  144.0305  161.8712 H       1  UNL1        0.1494
     19 C         144.8881  142.6259  160.0996 C.3     1  UNL1        0.0919
     20 C         143.8992  142.5145  158.9773 C.3     1  UNL1        0.0621
     21 C         140.8073  146.0401  156.5502 C.3     1  UNL1        0.0398
     22 C         141.4932  145.2398  157.6175 C.ar    1  UNL1        0.0278
     23 C         141.3046  145.3988  159.0971 C.ar    1  UNL1        0.1012
     24 N         142.1830  144.3972  159.7866 N.ar    1  UNL1       -0.2415
     25 C         142.9144  143.6192  158.7331 C.ar    1  UNL1        0.0884
     26 S         142.4881  144.1399  157.3926 S.2     1  UNL1       -0.0751
@<TRIPOS>BOND
     1    21    22    1
     2    22    23   ar
     3    23    24   ar
     4    24    25   ar
     5    25    20    1
     6    20    19    1
     7    19    15    1
     8    15    16    2
     9    15    17   am
    10     1    17    1
    11     1     2    1
    12     2     3    1
    13     3     4    1
    14     4     7    1
    15     7     8   ar
    16     8     9   ar
    17     9    10   ar
    18    10    11    1
    19    10    12   ar
    20    12    13   ar
    21     4     5    1
    22     5     6    1
    23    25    26   ar
    24    26    22   ar
    25     6     1    1
    26    13     7   ar
    27    17    18    1
    28    11    14    1
