@<TRIPOS>MOLECULE
*****
 36 40 0 0 0
SMALL
GASTEIGER

@<TRIPOS>ATOM
      1 O         141.8941  139.1445  158.5208 O.2     1  UNL1       -0.2706
      2 C         142.6574  137.8686  158.3223 C.2     1  UNL1        0.2701
      3 N         143.2692  137.1696  159.5000 N.am    1  UNL1       -0.2999
      4 H         143.7702  136.3322  159.3697 H       1  UNL1        0.1496
      5 C         143.1177  137.7466  160.8763 C.3     1  UNL1        0.1035
      6 C         144.0068  138.5160  161.8076 C.3     1  UNL1        0.0933
      7 N         142.9034  138.5625  162.8227 N.3     1  UNL1       -0.2711
      8 C         142.0142  137.7931  161.8913 C.3     1  UNL1        0.0933
      9 C         142.7519  139.1395  164.1990 C.3     1  UNL1        0.0576
     10 C         142.2319  140.5355  164.3739 C.3     1  UNL1        0.0163
     11 C         142.0804  141.1125  165.7502 C.3     1  UNL1        0.0058
     12 C         142.4489  140.2934  166.9515 C.3     1  UNL1        0.0240
     13 C         142.9689  138.8973  166.7765 C.3     1  UNL1        0.0058
     14 C         143.1204  138.3204  165.4003 C.3     1  UNL1        0.0163
     15 C         142.2975  140.8703  168.3278 C.ar    1  UNL1       -0.0033
     16 C         142.9796  142.1590  168.6801 C.ar    1  UNL1       -0.0011
     17 C         142.8282  142.7360  170.0564 C.ar    1  UNL1        0.0204
     18 C         141.9947  142.0242  171.0804 C.ar    1  UNL1        0.0989
     19 N         141.3127  140.7355  170.7282 N.ar    1  UNL1       -0.2426
     20 C         141.4640  140.1586  169.3519 C.ar    1  UNL1        0.0946
     21 C         142.8089  137.2917  156.9460 C.3     1  UNL1        0.2850
     22 N         142.1095  136.0140  156.5872 N.pl3   1  UNL1       -0.2091
     23 H         141.2222  136.0413  156.1616 H       1  UNL1        0.2928
     24 C         142.7621  134.6949  156.8769 C.2     1  UNL1        0.3493
     25 N         143.9127  134.4669  157.8118 N.2     1  UNL1        0.0798
     26 N         144.2403  133.0032  157.7952 N.2     1  UNL1       -0.0381
     27 C         143.2922  132.3266  156.8501 C.2     1  UNL1        0.1169
     28 C         143.1428  130.8935  156.4329 C.3     1  UNL1        0.0759
     29 C         142.0797  130.5061  155.4482 C.2     1  UNL1       -0.0158
     30 C         141.1661  131.5516  154.8806 C.2     1  UNL1        0.0678
     31 C         141.3155  132.9846  155.2978 C.2     1  UNL1        0.0123
     32 C         142.3786  133.3721  156.2825 C.2     1  UNL1        0.1019
     33 C         140.1030  131.1640  153.8959 C.3     1  UNL1        0.4183
     34 F         139.0400  130.7765  152.9111 F       1  UNL1       -0.1659
     35 F         139.3635  130.4377  154.9800 F       1  UNL1       -0.1659
     36 F         140.8426  131.8904  152.8117 F       1  UNL1       -0.1659
@<TRIPOS>BOND
     1     1     2    2
     2     2    21    1
     3    21    22    1
     4    22    24    1
     5    24    25    2
     6    25    26    1
     7    26    27    2
     8    27    28    1
     9    28    29    1
    10    29    30    2
    11    30    33    1
    12    33    34    1
    13    33    35    1
    14    33    36    1
    15    30    31    1
    16    31    32    2
    17     2     3   am
    18     3     5    1
    19     5     6    1
    20     6     7    1
    21     9     7    1
    22     9    10    1
    23    10    11    1
    24    11    12    1
    25    12    15    1
    26    15    16   ar
    27    16    17   ar
    28    17    18   ar
    29    18    19   ar
    30    19    20   ar
    31    12    13    1
    32    13    14    1
    33     7     8    1
    34    32    24    1
    35     8     5    1
    36    32    27    1
    37    14     9    1
    38    20    15   ar
    39    22    23    1
    40     3     4    1
@<TRIPOS>MOLECULE
*****
 36 40 0 0 0
SMALL
GASTEIGER

@<TRIPOS>ATOM
      1 O         141.8603  139.3148  158.7410 O.2     1  UNL1       -0.2706
      2 C         142.4566  137.9534  158.5389 C.2     1  UNL1        0.2701
      3 N         142.9700  137.1772  159.7153 N.am    1  UNL1       -0.2999
      4 H         143.3614  136.2836  159.5826 H       1  UNL1        0.1496
      5 C         142.8872  137.7626  161.0939 C.3     1  UNL1        0.1035
      6 C         141.8301  137.8299  162.1559 C.3     1  UNL1        0.0933
      7 N         142.7702  138.5905  163.0435 N.3     1  UNL1       -0.2711
      8 C         143.8273  138.5232  161.9815 C.3     1  UNL1        0.0933
      9 C         142.6874  139.1759  164.4221 C.3     1  UNL1        0.0576
     10 C         143.0353  138.3364  165.6155 C.3     1  UNL1        0.0163
     11 C         142.9525  138.9218  166.9941 C.3     1  UNL1        0.0058
     12 C         142.5217  140.3466  167.1792 C.3     1  UNL1        0.0240
     13 C         142.1738  141.1861  165.9857 C.3     1  UNL1        0.0058
     14 C         142.2566  140.6007  164.6072 C.3     1  UNL1        0.0163
     15 C         142.4389  140.9321  168.5577 C.ar    1  UNL1       -0.0033
     16 C         142.9033  142.3368  168.8051 C.ar    1  UNL1       -0.0011
     17 C         142.8205  142.9224  170.1836 C.ar    1  UNL1        0.0204
     18 C         142.2732  142.1033  171.3147 C.ar    1  UNL1        0.0989
     19 N         141.8088  140.6986  171.0674 N.ar    1  UNL1       -0.2426
     20 C         141.8916  140.1130  169.6889 C.ar    1  UNL1        0.0946
     21 C         142.5394  137.3680  157.1603 C.3     1  UNL1        0.2850
     22 N         141.3068  136.8232  156.5015 N.pl3   1  UNL1       -0.2091
     23 H         140.4209  137.1763  156.7461 H       1  UNL1        0.2928
     24 C         141.4239  135.7405  155.4700 C.2     1  UNL1        0.3493
     25 N         140.6712  135.6720  154.1743 N.2     1  UNL1        0.0798
     26 N         141.0964  134.4253  153.4567 N.2     1  UNL1       -0.0381
     27 C         142.1119  133.7234  154.3088 C.2     1  UNL1        0.1169
     28 C         142.8784  132.4491  154.1124 C.3     1  UNL1        0.0759
     29 C         143.8473  131.9877  155.1603 C.2     1  UNL1       -0.0158
     30 C         144.0497  132.8005  156.4046 C.2     1  UNL1        0.0678
     31 C         143.2832  134.0748  156.6010 C.2     1  UNL1        0.0123
     32 C         142.3143  134.5362  155.5531 C.2     1  UNL1        0.1019
     33 C         145.0187  132.3390  157.4526 C.3     1  UNL1        0.4183
     34 F         145.9877  131.8775  158.5005 F       1  UNL1       -0.1659
     35 F         144.5336  133.4169  158.3760 F       1  UNL1       -0.1659
     36 F         145.5039  131.2611  156.5293 F       1  UNL1       -0.1659
@<TRIPOS>BOND
     1     1     2    2
     2     2    21    1
     3    21    22    1
     4    22    24    1
     5    24    25    2
     6    25    26    1
     7    26    27    2
     8    27    28    1
     9    28    29    1
    10    29    30    2
    11    30    33    1
    12    33    34    1
    13    33    35    1
    14    33    36    1
    15    30    31    1
    16    31    32    2
    17     2     3   am
    18     3     5    1
    19     5     6    1
    20     6     7    1
    21     9     7    1
    22     9    10    1
    23    10    11    1
    24    11    12    1
    25    12    15    1
    26    15    16   ar
    27    16    17   ar
    28    17    18   ar
    29    18    19   ar
    30    19    20   ar
    31    12    13    1
    32    13    14    1
    33     7     8    1
    34    32    24    1
    35     8     5    1
    36    32    27    1
    37    14     9    1
    38    20    15   ar
    39    22    23    1
    40     3     4    1
@<TRIPOS>MOLECULE
*****
 36 40 0 0 0
SMALL
GASTEIGER

@<TRIPOS>ATOM
      1 O         144.1779  139.9092  157.4745 O.2     1  UNL1       -0.2706
      2 C         143.6467  138.6487  156.8588 C.2     1  UNL1        0.2701
      3 N         142.8930  137.6624  157.7009 N.am    1  UNL1       -0.2999
      4 H         142.5444  136.8351  157.2968 H       1  UNL1        0.1496
      5 C         142.6703  137.9368  159.1587 C.3     1  UNL1        0.1035
      6 C         141.6462  138.6936  159.9513 C.3     1  UNL1        0.0933
      7 N         142.3555  138.3246  161.2204 N.3     1  UNL1       -0.2711
      8 C         143.3797  137.5677  160.4279 C.3     1  UNL1        0.0933
      9 C         142.1329  138.5989  162.6782 C.3     1  UNL1        0.0576
     10 C         142.7325  139.8191  163.3119 C.3     1  UNL1        0.0163
     11 C         142.5099  140.0934  164.7697 C.3     1  UNL1        0.0058
     12 C         141.6876  139.1476  165.5938 C.3     1  UNL1        0.0240
     13 C         141.0880  137.9273  164.9600 C.3     1  UNL1        0.0058
     14 C         141.3107  137.6531  163.5023 C.3     1  UNL1        0.0163
     15 C         141.4649  139.4217  167.0516 C.ar    1  UNL1       -0.0033
     16 C         142.6230  139.3976  168.0047 C.ar    1  UNL1       -0.0011
     17 C         142.4004  139.6718  169.4626 C.ar    1  UNL1        0.0204
     18 C         141.0197  139.9701  169.9673 C.ar    1  UNL1        0.0989
     19 N         139.8617  139.9943  169.0142 N.ar    1  UNL1       -0.2426
     20 C         140.0843  139.7201  167.5564 C.ar    1  UNL1        0.0946
     21 C         143.8694  138.3744  155.4010 C.3     1  UNL1        0.2850
     22 N         144.2157  136.9886  154.9429 N.pl3   1  UNL1       -0.2091
     23 H         145.1550  136.7455  154.7763 H       1  UNL1        0.2928
     24 C         143.1307  135.9731  154.7387 C.2     1  UNL1        0.3493
     25 N         141.8994  136.1547  153.9016 N.2     1  UNL1        0.0798
     26 N         141.0943  134.8915  153.9813 N.2     1  UNL1       -0.0381
     27 C         141.8280  133.9293  154.8678 C.2     1  UNL1        0.1169
     28 C         141.5127  132.5309  155.3092 C.3     1  UNL1        0.0759
     29 C         142.4560  131.8009  156.2187 C.2     1  UNL1       -0.0158
     30 C         143.7146  132.4693  156.6868 C.2     1  UNL1        0.0678
     31 C         144.0299  133.8678  156.2454 C.2     1  UNL1        0.0123
     32 C         143.0866  134.5978  155.3359 C.2     1  UNL1        0.1019
     33 C         144.6579  131.7393  157.5964 C.3     1  UNL1        0.4183
     34 F         145.6012  131.0092  158.5059 F       1  UNL1       -0.1659
     35 F         144.9524  133.0202  158.3192 F       1  UNL1       -0.1659
     36 F         144.3634  130.4584  156.8736 F       1  UNL1       -0.1659
@<TRIPOS>BOND
     1     1     2    2
     2     2    21    1
     3    21    22    1
     4    22    24    1
     5    24    25    2
     6    25    26    1
     7    26    27    2
     8    27    28    1
     9    28    29    1
    10    29    30    2
    11    30    33    1
    12    33    34    1
    13    33    35    1
    14    33    36    1
    15    30    31    1
    16    31    32    2
    17     2     3   am
    18     3     5    1
    19     5     6    1
    20     6     7    1
    21     9     7    1
    22     9    10    1
    23    10    11    1
    24    11    12    1
    25    12    15    1
    26    15    16   ar
    27    16    17   ar
    28    17    18   ar
    29    18    19   ar
    30    19    20   ar
    31    12    13    1
    32    13    14    1
    33     7     8    1
    34    32    24    1
    35     8     5    1
    36    32    27    1
    37    14     9    1
    38    20    15   ar
    39    22    23    1
    40     3     4    1
@<TRIPOS>MOLECULE
*****
 36 40 0 0 0
SMALL
GASTEIGER

@<TRIPOS>ATOM
      1 O         141.7728  138.8153  158.4844 O.2     1  UNL1       -0.2706
      2 C         140.4690  138.2676  157.9844 C.2     1  UNL1        0.2701
      3 N         139.2766  138.2221  158.8933 N.am    1  UNL1       -0.2999
      4 H         138.4209  137.8626  158.5650 H       1  UNL1        0.1496
      5 C         139.3881  138.7244  160.3023 C.3     1  UNL1        0.1035
      6 C         139.0725  140.0164  160.9958 C.3     1  UNL1        0.0933
      7 N         139.5458  139.4347  162.2949 N.3     1  UNL1       -0.2711
      8 C         139.8614  138.1426  161.6014 C.3     1  UNL1        0.0933
      9 C         139.6572  139.9370  163.7039 C.3     1  UNL1        0.0576
     10 C         140.6227  141.0365  164.0341 C.3     1  UNL1        0.0163
     11 C         140.7342  141.5388  165.4431 C.3     1  UNL1        0.0058
     12 C         139.8801  140.9416  166.5219 C.3     1  UNL1        0.0240
     13 C         138.9146  139.8421  166.1917 C.3     1  UNL1        0.0058
     14 C         138.8032  139.3398  164.7828 C.3     1  UNL1        0.0163
     15 C         139.9915  141.4438  167.9309 C.ar    1  UNL1       -0.0033
     16 C         140.5259  142.8200  168.1966 C.ar    1  UNL1       -0.0011
     17 C         140.6374  143.3224  169.6056 C.ar    1  UNL1        0.0204
     18 C         140.2143  142.4485  170.7489 C.ar    1  UNL1        0.0989
     19 N         139.6799  141.0723  170.4833 N.ar    1  UNL1       -0.2426
     20 C         139.5685  140.5700  169.0743 C.ar    1  UNL1        0.0946
     21 C         140.3576  137.7653  156.5754 C.3     1  UNL1        0.2850
     22 N         141.5885  137.3392  155.8314 N.pl3   1  UNL1       -0.2091
     23 H         142.4115  137.8759  155.8932 H       1  UNL1        0.2928
     24 C         141.5655  136.0953  154.9934 C.2     1  UNL1        0.3493
     25 N         140.7551  135.8857  153.7487 N.2     1  UNL1        0.0798
     26 N         141.0375  134.5035  153.2390 N.2     1  UNL1       -0.0381
     27 C         142.0225  133.8589  154.1687 C.2     1  UNL1        0.1169
     28 C         142.6645  132.5033  154.1680 C.3     1  UNL1        0.0759
     29 C         143.6327  132.1314  155.2516 C.2     1  UNL1       -0.0158
     30 C         143.9590  133.1152  156.3359 C.2     1  UNL1        0.0678
     31 C         143.3170  134.4709  156.3366 C.2     1  UNL1        0.0123
     32 C         142.3488  134.8427  155.2530 C.2     1  UNL1        0.1019
     33 C         144.9272  132.7433  157.4195 C.3     1  UNL1        0.4183
     34 F         145.8954  132.3714  158.5031 F       1  UNL1       -0.1659
     35 F         145.6309  131.8168  156.4728 F       1  UNL1       -0.1659
     36 F         144.2235  133.6698  158.3662 F       1  UNL1       -0.1659
@<TRIPOS>BOND
     1     1     2    2
     2     2    21    1
     3    21    22    1
     4    22    24    1
     5    24    25    2
     6    25    26    1
     7    26    27    2
     8    27    28    1
     9    28    29    1
    10    29    30    2
    11    30    33    1
    12    33    34    1
    13    33    35    1
    14    33    36    1
    15    30    31    1
    16    31    32    2
    17     2     3   am
    18     3     5    1
    19     5     6    1
    20     6     7    1
    21     9     7    1
    22     9    10    1
    23    10    11    1
    24    11    12    1
    25    12    15    1
    26    15    16   ar
    27    16    17   ar
    28    17    18   ar
    29    18    19   ar
    30    19    20   ar
    31    12    13    1
    32    13    14    1
    33     7     8    1
    34    32    24    1
    35     8     5    1
    36    32    27    1
    37    14     9    1
    38    20    15   ar
    39    22    23    1
    40     3     4    1
@<TRIPOS>MOLECULE
*****
 36 40 0 0 0
SMALL
GASTEIGER

@<TRIPOS>ATOM
      1 O         137.4468  142.8604  158.0040 O.2     1  UNL1       -0.2706
      2 C         137.2464  141.5990  157.2174 C.2     1  UNL1        0.2701
      3 N         137.5178  140.2677  157.8528 N.am    1  UNL1       -0.2999
      4 H         137.3863  139.4398  157.3365 H       1  UNL1        0.1496
      5 C         137.9895  140.1977  159.2750 C.3     1  UNL1        0.1035
      6 C         137.3419  139.8953  160.5937 C.3     1  UNL1        0.0933
      7 N         138.6568  140.0989  161.2863 N.3     1  UNL1       -0.2711
      8 C         139.3045  140.4013  159.9676 C.3     1  UNL1        0.0933
      9 C         139.1285  140.0289  162.7085 C.3     1  UNL1        0.0576
     10 C         138.9812  141.2210  163.6070 C.3     1  UNL1        0.0163
     11 C         139.4529  141.1510  165.0292 C.3     1  UNL1        0.0058
     12 C         140.0719  139.8891  165.5528 C.3     1  UNL1        0.0240
     13 C         140.2192  138.6970  164.6542 C.3     1  UNL1        0.0058
     14 C         139.7475  138.7670  163.2321 C.3     1  UNL1        0.0163
     15 C         140.5437  139.8190  166.9749 C.ar    1  UNL1       -0.0033
     16 C         142.0035  139.6458  167.2732 C.ar    1  UNL1       -0.0011
     17 C         142.4754  139.5758  168.6953 C.ar    1  UNL1        0.0204
     18 C         141.4874  139.6789  169.8192 C.ar    1  UNL1        0.0989
     19 N         140.0276  139.8521  169.5210 N.ar    1  UNL1       -0.2426
     20 C         139.5557  139.9222  168.0989 C.ar    1  UNL1        0.0946
     21 C         136.7747  141.6689  155.7952 C.3     1  UNL1        0.2850
     22 N         135.3090  141.7791  155.4957 N.pl3   1  UNL1       -0.2091
     23 H         134.9714  142.5326  154.9595 H       1  UNL1        0.2928
     24 C         134.3577  140.7412  156.0132 C.2     1  UNL1        0.3493
     25 N         134.7359  139.4661  156.7067 N.2     1  UNL1        0.0798
     26 N         133.4731  138.7330  157.0501 N.2     1  UNL1       -0.0381
     27 C         132.3144  139.5551  156.5687 C.2     1  UNL1        0.1169
     28 C         130.8321  139.3338  156.6312 C.3     1  UNL1        0.0759
     29 C         129.8966  140.3537  156.0527 C.2     1  UNL1       -0.0158
     30 C         130.4433  141.5948  155.4119 C.2     1  UNL1        0.0678
     31 C         131.9256  141.8161  155.3494 C.2     1  UNL1        0.0123
     32 C         132.8611  140.7962  155.9279 C.2     1  UNL1        0.1019
     33 C         129.5077  142.6147  154.8335 C.3     1  UNL1        0.4183
     34 F         128.5721  143.6345  154.2551 F       1  UNL1       -0.1659
     35 F         130.5568  143.0127  153.8381 F       1  UNL1       -0.1659
     36 F         128.4586  142.2167  155.8288 F       1  UNL1       -0.1659
@<TRIPOS>BOND
     1     1     2    2
     2     2    21    1
     3    21    22    1
     4    22    24    1
     5    24    25    2
     6    25    26    1
     7    26    27    2
     8    27    28    1
     9    28    29    1
    10    29    30    2
    11    30    33    1
    12    33    34    1
    13    33    35    1
    14    33    36    1
    15    30    31    1
    16    31    32    2
    17     2     3   am
    18     3     5    1
    19     5     6    1
    20     6     7    1
    21     9     7    1
    22     9    10    1
    23    10    11    1
    24    11    12    1
    25    12    15    1
    26    15    16   ar
    27    16    17   ar
    28    17    18   ar
    29    18    19   ar
    30    19    20   ar
    31    12    13    1
    32    13    14    1
    33     7     8    1
    34    32    24    1
    35     8     5    1
    36    32    27    1
    37    14     9    1
    38    20    15   ar
    39    22    23    1
    40     3     4    1
@<TRIPOS>MOLECULE
*****
 36 40 0 0 0
SMALL
GASTEIGER

@<TRIPOS>ATOM
      1 O         137.6921  142.5786  158.0695 O.2     1  UNL1       -0.2706
      2 C         137.3861  141.1483  157.7372 C.2     1  UNL1        0.2701
      3 N         137.6579  140.0698  158.7436 N.am    1  UNL1       -0.2999
      4 H         137.4570  139.1310  158.5255 H       1  UNL1        0.1496
      5 C         138.2357  140.4217  160.0824 C.3     1  UNL1        0.1035
      6 C         139.6196  140.6527  160.6128 C.3     1  UNL1        0.0933
      7 N         139.0528  140.9193  161.9757 N.3     1  UNL1       -0.2711
      8 C         137.6688  140.6883  161.4454 C.3     1  UNL1        0.0933
      9 C         139.6306  141.2712  163.3145 C.3     1  UNL1        0.0576
     10 C         139.3811  142.6268  163.9062 C.3     1  UNL1        0.0163
     11 C         139.9589  142.9787  165.2450 C.3     1  UNL1        0.0058
     12 C         140.7862  141.9750  165.9921 C.3     1  UNL1        0.0240
     13 C         141.0356  140.6193  165.4003 C.3     1  UNL1        0.0058
     14 C         140.4578  140.2675  164.0616 C.3     1  UNL1        0.0163
     15 C         141.3641  142.3267  167.3308 C.ar    1  UNL1       -0.0033
     16 C         140.4751  142.8613  168.4144 C.ar    1  UNL1       -0.0011
     17 C         141.0528  143.2131  169.7532 C.ar    1  UNL1        0.0204
     18 C         142.5196  143.0303  170.0084 C.ar    1  UNL1        0.0989
     19 N         143.4086  142.4957  168.9250 N.ar    1  UNL1       -0.2426
     20 C         142.8308  142.1439  167.5862 C.ar    1  UNL1        0.0946
     21 C         136.8083  140.7964  156.3984 C.3     1  UNL1        0.2850
     22 N         135.4166  141.2305  156.0446 N.pl3   1  UNL1       -0.2091
     23 H         135.2781  142.0013  155.4481 H       1  UNL1        0.2928
     24 C         134.2361  140.4900  156.5997 C.2     1  UNL1        0.3493
     25 N         134.2827  139.4065  157.6360 N.2     1  UNL1        0.0798
     26 N         132.8771  138.9500  157.8927 N.2     1  UNL1       -0.0381
     27 C         131.9619  139.7513  157.0150 C.2     1  UNL1        0.1169
     28 C         130.4722  139.7372  156.8403 C.3     1  UNL1        0.0759
     29 C         129.8224  140.6749  155.8665 C.2     1  UNL1       -0.0158
     30 C         130.6623  141.6267  155.0674 C.2     1  UNL1        0.0678
     31 C         132.1520  141.6408  155.2421 C.2     1  UNL1        0.0123
     32 C         132.8018  140.7031  156.2159 C.2     1  UNL1        0.1019
     33 C         130.0125  142.5645  154.0935 C.3     1  UNL1        0.4183
     34 F         129.3627  143.5021  153.1196 F       1  UNL1       -0.1659
     35 F         129.3520  143.2870  155.2299 F       1  UNL1       -0.1659
     36 F         130.6730  141.8419  152.9570 F       1  UNL1       -0.1659
@<TRIPOS>BOND
     1     1     2    2
     2     2    21    1
     3    21    22    1
     4    22    24    1
     5    24    25    2
     6    25    26    1
     7    26    27    2
     8    27    28    1
     9    28    29    1
    10    29    30    2
    11    30    33    1
    12    33    34    1
    13    33    35    1
    14    33    36    1
    15    30    31    1
    16    31    32    2
    17     2     3   am
    18     3     5    1
    19     5     6    1
    20     6     7    1
    21     9     7    1
    22     9    10    1
    23    10    11    1
    24    11    12    1
    25    12    15    1
    26    15    16   ar
    27    16    17   ar
    28    17    18   ar
    29    18    19   ar
    30    19    20   ar
    31    12    13    1
    32    13    14    1
    33     7     8    1
    34    32    24    1
    35     8     5    1
    36    32    27    1
    37    14     9    1
    38    20    15   ar
    39    22    23    1
    40     3     4    1
@<TRIPOS>MOLECULE
*****
 36 40 0 0 0
SMALL
GASTEIGER

@<TRIPOS>ATOM
      1 O         140.3675  140.7119  160.4521 O.2     1  UNL1       -0.2706
      2 C         139.6311  141.5664  159.4634 C.2     1  UNL1        0.2701
      3 N         139.4946  141.1170  158.0389 N.am    1  UNL1       -0.2999
      4 H         139.0113  141.6778  157.3899 H       1  UNL1        0.1496
      5 C         140.0945  139.8131  157.6031 C.3     1  UNL1        0.1035
      6 C         141.1278  139.4051  156.5952 C.3     1  UNL1        0.0933
      7 N         140.9428  137.9690  156.9868 N.3     1  UNL1       -0.2711
      8 C         139.9095  138.3769  157.9947 C.3     1  UNL1        0.0933
      9 C         141.5427  136.6650  156.5510 C.3     1  UNL1        0.0576
     10 C         140.8790  135.8561  155.4763 C.3     1  UNL1        0.0163
     11 C         141.4789  134.5522  155.0405 C.3     1  UNL1        0.0058
     12 C         142.7425  134.0572  155.6794 C.3     1  UNL1        0.0240
     13 C         143.4062  134.8662  156.7542 C.3     1  UNL1        0.0058
     14 C         142.8063  136.1701  157.1899 C.3     1  UNL1        0.0163
     15 C         143.3425  132.7533  155.2437 C.ar    1  UNL1       -0.0033
     16 C         142.9216  132.1307  153.9455 C.ar    1  UNL1       -0.0011
     17 C         143.5215  130.8268  153.5097 C.ar    1  UNL1        0.0204
     18 C         144.5423  130.1455  154.3721 C.ar    1  UNL1        0.0989
     19 N         144.9632  130.7681  155.6702 N.ar    1  UNL1       -0.2426
     20 C         144.3633  132.0720  156.1061 C.ar    1  UNL1        0.0946
     21 C         139.0312  142.8703  159.8992 C.3     1  UNL1        0.2850
     22 N         138.1438  142.9210  161.1076 N.pl3   1  UNL1       -0.2091
     23 H         137.1874  142.7022  161.0255 H       1  UNL1        0.2928
     24 C         138.7135  143.3051  162.4409 C.2     1  UNL1        0.3493
     25 N         139.1844  144.6729  162.8376 N.2     1  UNL1        0.0798
     26 N         139.6743  144.6019  164.2536 N.2     1  UNL1       -0.0381
     27 C         139.5062  143.1902  164.7320 C.2     1  UNL1        0.1169
     28 C         139.8172  142.5310  166.0430 C.3     1  UNL1        0.0759
     29 C         139.5343  141.0703  166.2337 C.2     1  UNL1       -0.0158
     30 C         138.9405  140.2689  165.1134 C.2     1  UNL1        0.0678
     31 C         138.6296  140.9280  163.8024 C.2     1  UNL1        0.0123
     32 C         138.9124  142.3887  163.6117 C.2     1  UNL1        0.1019
     33 C         138.6577  138.8081  165.3042 C.3     1  UNL1        0.4183
     34 F         138.3749  137.3475  165.4949 F       1  UNL1       -0.1659
     35 F         137.6347  139.1426  166.3490 F       1  UNL1       -0.1659
     36 F         139.6807  138.4736  164.2595 F       1  UNL1       -0.1659
@<TRIPOS>BOND
     1     1     2    2
     2     2    21    1
     3    21    22    1
     4    22    24    1
     5    24    25    2
     6    25    26    1
     7    26    27    2
     8    27    28    1
     9    28    29    1
    10    29    30    2
    11    30    33    1
    12    33    34    1
    13    33    35    1
    14    33    36    1
    15    30    31    1
    16    31    32    2
    17     2     3   am
    18     3     5    1
    19     5     6    1
    20     6     7    1
    21     9     7    1
    22     9    10    1
    23    10    11    1
    24    11    12    1
    25    12    15    1
    26    15    16   ar
    27    16    17   ar
    28    17    18   ar
    29    18    19   ar
    30    19    20   ar
    31    12    13    1
    32    13    14    1
    33     7     8    1
    34    32    24    1
    35     8     5    1
    36    32    27    1
    37    14     9    1
    38    20    15   ar
    39    22    23    1
    40     3     4    1
@<TRIPOS>MOLECULE
*****
 36 40 0 0 0
SMALL
GASTEIGER

@<TRIPOS>ATOM
      1 O         140.3290  143.0990  166.7105 O.2     1  UNL1       -0.2706
      2 C         141.6661  142.4960  167.0245 C.2     1  UNL1        0.2701
      3 N         142.7157  142.4019  165.9571 N.am    1  UNL1       -0.2999
      4 H         143.5933  142.0061  166.1631 H       1  UNL1        0.1496
      5 C         142.4282  142.9108  164.5756 C.3     1  UNL1        0.1035
      6 C         141.6267  142.4159  163.4083 C.3     1  UNL1        0.0933
      7 N         142.0216  143.6307  162.6220 N.3     1  UNL1       -0.2711
      8 C         142.8231  144.1257  163.7893 C.3     1  UNL1        0.0933
      9 C         141.7341  144.1396  161.2406 C.3     1  UNL1        0.0576
     10 C         142.5358  143.6402  160.0753 C.3     1  UNL1        0.0163
     11 C         142.2483  144.1491  158.6939 C.3     1  UNL1        0.0058
     12 C         141.1590  145.1575  158.4777 C.3     1  UNL1        0.0240
     13 C         140.3573  145.6569  159.6431 C.3     1  UNL1        0.0058
     14 C         140.6448  145.1480  161.0244 C.3     1  UNL1        0.0163
     15 C         140.8714  145.6665  157.0964 C.ar    1  UNL1       -0.0033
     16 C         139.7488  146.6361  156.8730 C.ar    1  UNL1       -0.0011
     17 C         139.4611  147.1452  155.4917 C.ar    1  UNL1        0.0204
     18 C         140.2960  146.6847  154.3338 C.ar    1  UNL1        0.0989
     19 N         141.4185  145.7151  154.5571 N.ar    1  UNL1       -0.2426
     20 C         141.7063  145.2060  155.9384 C.ar    1  UNL1        0.0946
     21 C         141.9536  141.9871  168.4059 C.3     1  UNL1        0.2850
     22 N         141.6088  140.5736  168.7713 N.pl3   1  UNL1       -0.2091
     23 H         142.1900  140.0679  169.3842 H       1  UNL1        0.2928
     24 C         140.3784  139.9309  168.2030 C.2     1  UNL1        0.3493
     25 N         139.0322  139.8680  168.8615 N.2     1  UNL1        0.0798
     26 N         138.1000  139.1364  167.9418 N.2     1  UNL1       -0.0381
     27 C         138.8701  138.7472  166.7148 C.2     1  UNL1        0.1169
     28 C         138.4711  138.0091  165.4715 C.3     1  UNL1        0.0759
     29 C         139.4802  137.7621  164.3896 C.2     1  UNL1       -0.0158
     30 C         140.8883  138.2531  164.5510 C.2     1  UNL1        0.0678
     31 C         141.2874  138.9912  165.7943 C.2     1  UNL1        0.0123
     32 C         140.2783  139.2382  166.8763 C.2     1  UNL1        0.1019
     33 C         141.8974  138.0060  163.4689 C.3     1  UNL1        0.4183
     34 F         142.9065  137.7589  162.3870 F       1  UNL1       -0.1659
     35 F         142.8091  139.0246  164.0865 F       1  UNL1       -0.1659
     36 F         140.9858  136.9874  162.8514 F       1  UNL1       -0.1659
@<TRIPOS>BOND
     1     1     2    2
     2     2    21    1
     3    21    22    1
     4    22    24    1
     5    24    25    2
     6    25    26    1
     7    26    27    2
     8    27    28    1
     9    28    29    1
    10    29    30    2
    11    30    33    1
    12    33    34    1
    13    33    35    1
    14    33    36    1
    15    30    31    1
    16    31    32    2
    17     2     3   am
    18     3     5    1
    19     5     6    1
    20     6     7    1
    21     9     7    1
    22     9    10    1
    23    10    11    1
    24    11    12    1
    25    12    15    1
    26    15    16   ar
    27    16    17   ar
    28    17    18   ar
    29    18    19   ar
    30    19    20   ar
    31    12    13    1
    32    13    14    1
    33     7     8    1
    34    32    24    1
    35     8     5    1
    36    32    27    1
    37    14     9    1
    38    20    15   ar
    39    22    23    1
    40     3     4    1
@<TRIPOS>MOLECULE
*****
 36 40 0 0 0
SMALL
GASTEIGER

@<TRIPOS>ATOM
      1 O         140.9806  141.1513  160.0968 O.2     1  UNL1       -0.2706
      2 C         139.9913  141.8358  159.2008 C.2     1  UNL1        0.2701
      3 N         139.5934  141.2025  157.9006 N.am    1  UNL1       -0.2999
      4 H         138.9441  141.6518  157.3126 H       1  UNL1        0.1496
      5 C         140.1849  139.8846  157.4964 C.3     1  UNL1        0.1035
      6 C         141.2817  139.4544  156.5681 C.3     1  UNL1        0.0933
      7 N         141.0213  138.0208  156.9247 N.3     1  UNL1       -0.2711
      8 C         139.9245  138.4510  157.8531 C.3     1  UNL1        0.0933
      9 C         141.6128  136.7030  156.5205 C.3     1  UNL1        0.0576
     10 C         142.8695  136.2122  157.1761 C.3     1  UNL1        0.0163
     11 C         143.4610  134.8944  156.7719 C.3     1  UNL1        0.0058
     12 C         142.7958  134.0673  155.7120 C.3     1  UNL1        0.0240
     13 C         141.5391  134.5581  155.0563 C.3     1  UNL1        0.0058
     14 C         140.9476  135.8759  155.4606 C.3     1  UNL1        0.0163
     15 C         143.3872  132.7495  155.3076 C.ar    1  UNL1       -0.0033
     16 C         142.9476  132.0892  154.0345 C.ar    1  UNL1       -0.0011
     17 C         143.5390  130.7713  153.6300 C.ar    1  UNL1        0.0204
     18 C         144.5699  130.1137  154.4988 C.ar    1  UNL1        0.0989
     19 N         145.0095  130.7739  155.7719 N.ar    1  UNL1       -0.2426
     20 C         144.4181  132.0918  156.1763 C.ar    1  UNL1        0.0946
     21 C         139.3998  143.1536  159.6051 C.3     1  UNL1        0.2850
     22 N         138.2084  143.1932  160.5158 N.pl3   1  UNL1       -0.2091
     23 H         137.3784  143.6334  160.2216 H       1  UNL1        0.2928
     24 C         138.2818  142.5622  161.8746 C.2     1  UNL1        0.3493
     25 N         137.3062  141.5740  162.4417 N.2     1  UNL1        0.0798
     26 N         137.7652  141.2097  163.8225 N.2     1  UNL1       -0.0381
     27 C         139.0244  141.9728  164.1088 C.2     1  UNL1        0.1169
     28 C         139.9216  142.0145  165.3102 C.3     1  UNL1        0.0759
     29 C         141.1380  142.8921  165.3077 C.2     1  UNL1       -0.0158
     30 C         141.4573  143.7280  164.1038 C.2     1  UNL1        0.0678
     31 C         140.5602  143.6863  162.9025 C.2     1  UNL1        0.0123
     32 C         139.3437  142.8087  162.9049 C.2     1  UNL1        0.1019
     33 C         142.6738  144.6057  164.1014 C.3     1  UNL1        0.4183
     34 F         143.8902  145.4833  164.0990 F       1  UNL1       -0.1659
     35 F         143.5360  143.4115  164.3850 F       1  UNL1       -0.1659
     36 F         141.8116  145.7999  163.8178 F       1  UNL1       -0.1659
@<TRIPOS>BOND
     1     1     2    2
     2     2    21    1
     3    21    22    1
     4    22    24    1
     5    24    25    2
     6    25    26    1
     7    26    27    2
     8    27    28    1
     9    28    29    1
    10    29    30    2
    11    30    33    1
    12    33    34    1
    13    33    35    1
    14    33    36    1
    15    30    31    1
    16    31    32    2
    17     2     3   am
    18     3     5    1
    19     5     6    1
    20     6     7    1
    21     9     7    1
    22     9    10    1
    23    10    11    1
    24    11    12    1
    25    12    15    1
    26    15    16   ar
    27    16    17   ar
    28    17    18   ar
    29    18    19   ar
    30    19    20   ar
    31    12    13    1
    32    13    14    1
    33     7     8    1
    34    32    24    1
    35     8     5    1
    36    32    27    1
    37    14     9    1
    38    20    15   ar
    39    22    23    1
    40     3     4    1
