@<TRIPOS>MOLECULE
*****
 40 45 0 0 0
SMALL
GASTEIGER

@<TRIPOS>ATOM
      1 N         141.8519  137.9656  161.8687 N.3     1  UNL1       -0.2690
      2 C         143.3095  138.2322  161.6360 C.3     1  UNL1        0.0725
      3 C         143.7586  138.8864  160.3631 C.3     1  UNL1        0.0211
      4 C         142.7500  139.2741  159.3228 C.3     1  UNL1        0.0466
      5 C         141.2923  139.0075  159.5554 C.3     1  UNL1        0.0211
      6 C         140.8433  138.3533  160.8283 C.3     1  UNL1        0.0725
      7 C         141.4028  137.3114  163.1416 C.3     1  UNL1        0.0991
      8 C         140.5157  139.8212  166.7698 C.ar    1  UNL1        0.0002
      9 C         139.4592  139.6125  165.7256 C.ar    1  UNL1       -0.0003
     10 C         139.7550  138.7759  164.5162 C.ar    1  UNL1       -0.0029
     11 C         141.1072  138.1480  164.3510 C.ar    1  UNL1       -0.0061
     12 C         142.1636  138.3567  165.3953 C.ar    1  UNL1       -0.0029
     13 C         141.8678  139.1933  166.6046 C.ar    1  UNL1       -0.0003
     14 C         140.8283  142.0222  168.1143 C.ar    1  UNL1        0.0756
     15 C         140.5326  142.8589  169.3236 C.ar    1  UNL1        0.0064
     16 C         139.6287  142.3310  170.3980 C.ar    1  UNL1        0.0002
     17 C         139.0204  140.9666  170.2629 C.ar    1  UNL1        0.0000
     18 C         139.3160  140.1299  169.0536 C.ar    1  UNL1        0.0002
     19 C         140.2200  140.6578  167.9792 C.ar    1  UNL1        0.0062
     20 C         141.7322  142.5501  167.0399 C.2     1  UNL1        0.3413
     21 O         143.2197  142.4127  167.1768 O.2     1  UNL1       -0.2449
     22 C         139.6620  143.3657  165.6988 C.3     1  UNL1        0.2560
     23 O         141.1488  143.2154  165.8288 O.3     1  UNL1       -0.4413
     24 C         143.1990  139.9283  158.0498 C.3     1  UNL1        0.2087
     25 O         143.1419  141.4209  157.9130 O.3     1  UNL1       -0.4453
     26 C         144.0627  142.2842  158.7234 C.2     1  UNL1        0.3458
     27 O         145.4484  142.5746  158.2277 O.2     1  UNL1       -0.2447
     28 C         143.5980  142.8571  160.0295 C.ar    1  UNL1        0.1283
     29 C         144.2196  142.6093  161.3719 C.ar    1  UNL1        0.2121
     30 N         143.4358  143.3774  162.3945 N.ar    1  UNL1       -0.2989
     31 C         142.3298  144.1000  161.6840 C.ar    1  UNL1        0.0626
     32 C         141.2444  145.0092  162.1792 C.ar    1  UNL1        0.0173
     33 C         140.2593  145.5968  161.2127 C.ar    1  UNL1        0.0015
     34 C         140.3595  145.2752  159.7510 C.ar    1  UNL1        0.0001
     35 C         141.4449  144.3660  159.2558 C.ar    1  UNL1        0.0018
     36 C         142.4301  143.7784  160.2223 C.ar    1  UNL1        0.0266
     37 C         143.8305  143.3197  163.8405 C.3     1  UNL1        0.1127
     38 C         145.0089  142.4938  164.2639 C.3     1  UNL1        0.0719
     39 C         145.7927  141.7257  163.2413 C.3     1  UNL1        0.2091
     40 O         145.3980  141.7834  161.7954 O.3     1  UNL1       -0.4611
@<TRIPOS>BOND
     1    22    23    1
     2    23    20    1
     3    20    21    2
     4    20    14    1
     5    14    15   ar
     6    15    16   ar
     7    16    17   ar
     8    17    18   ar
     9    18    19   ar
    10    19     8    1
    11     8     9   ar
    12     9    10   ar
    13    10    11   ar
    14    11     7    1
    15     7     1    1
    16     1     2    1
    17     2     3    1
    18     3     4    1
    19     4    24    1
    20    24    25    1
    21    25    26    1
    22    26    27    2
    23    26    28    1
    24    28    29   ar
    25    29    30   ar
    26    30    31   ar
    27    31    32   ar
    28    32    33   ar
    29    33    34   ar
    30    34    35   ar
    31    35    36   ar
    32    30    37    1
    33    37    38    1
    34    38    39    1
    35    39    40    1
    36     4     5    1
    37     5     6    1
    38    11    12   ar
    39    12    13   ar
    40    19    14   ar
    41    13     8   ar
    42     6     1    1
    43    36    28   ar
    44    40    29    1
    45    36    31   ar
@<TRIPOS>MOLECULE
*****
 40 45 0 0 0
SMALL
GASTEIGER

@<TRIPOS>ATOM
      1 N         138.0975  140.5838  161.9688 N.3     1  UNL1       -0.2690
      2 C         138.3917  139.1145  162.0365 C.3     1  UNL1        0.0725
      3 C         138.9664  138.4089  160.8441 C.3     1  UNL1        0.0211
      4 C         139.2468  139.1726  159.5838 C.3     1  UNL1        0.0466
      5 C         138.9525  140.6418  159.5161 C.3     1  UNL1        0.0211
      6 C         138.3779  141.3474  160.7085 C.3     1  UNL1        0.0725
      7 C         137.5228  141.2894  163.1612 C.3     1  UNL1        0.0991
      8 C         140.1298  142.1842  166.7183 C.ar    1  UNL1        0.0002
      9 C         139.5858  140.8010  166.5161 C.ar    1  UNL1       -0.0003
     10 C         138.7168  140.5028  165.3304 C.ar    1  UNL1       -0.0029
     11 C         138.3918  141.5877  164.3469 C.ar    1  UNL1       -0.0061
     12 C         138.9358  142.9709  164.5491 C.ar    1  UNL1       -0.0029
     13 C         139.8048  143.2691  165.7348 C.ar    1  UNL1       -0.0003
     14 C         142.4362  142.0539  167.9071 C.ar    1  UNL1        0.0756
     15 C         143.3053  142.3521  169.0927 C.ar    1  UNL1        0.0064
     16 C         142.7368  143.0791  170.2753 C.ar    1  UNL1        0.0002
     17 C         141.2994  143.5078  170.2721 C.ar    1  UNL1        0.0000
     18 C         140.4304  143.2095  169.0865 C.ar    1  UNL1        0.0002
     19 C         140.9988  142.4825  167.9040 C.ar    1  UNL1        0.0062
     20 C         143.0047  141.3269  166.7246 C.2     1  UNL1        0.3413
     21 O         143.7043  142.0910  165.6398 O.2     1  UNL1       -0.2449
     22 C         142.7957  139.1764  165.2818 C.3     1  UNL1        0.2560
     23 O         142.8735  139.8358  166.6268 O.3     1  UNL1       -0.4413
     24 C         139.8214  138.4669  158.3914 C.3     1  UNL1        0.2087
     25 O         141.2783  138.1112  158.3605 O.3     1  UNL1       -0.4453
     26 C         142.1620  138.4672  159.5190 C.2     1  UNL1        0.3458
     27 O         142.3998  137.4708  160.6148 O.2     1  UNL1       -0.2447
     28 C         142.8080  139.8195  159.5819 C.ar    1  UNL1        0.1283
     29 C         143.7600  140.3896  158.5726 C.ar    1  UNL1        0.2121
     30 N         144.1557  141.7616  159.0321 N.ar    1  UNL1       -0.2989
     31 C         143.4482  142.0395  160.3252 C.ar    1  UNL1        0.0626
     32 C         143.4549  143.2303  161.2372 C.ar    1  UNL1        0.0173
     33 C         142.6286  143.2209  162.4890 C.ar    1  UNL1        0.0015
     34 C         141.7956  142.0206  162.8288 C.ar    1  UNL1        0.0001
     35 C         141.7890  140.8297  161.9169 C.ar    1  UNL1        0.0018
     36 C         142.6153  140.8392  160.6651 C.ar    1  UNL1        0.0266
     37 C         145.1091  142.5807  158.2135 C.3     1  UNL1        0.1127
     38 C         145.6669  142.0278  156.9355 C.3     1  UNL1        0.0719
     39 C         145.2712  140.6558  156.4761 C.3     1  UNL1        0.2091
     40 O         144.3178  139.8367  157.2946 O.3     1  UNL1       -0.4611
@<TRIPOS>BOND
     1    22    23    1
     2    23    20    1
     3    20    21    2
     4    20    14    1
     5    14    15   ar
     6    15    16   ar
     7    16    17   ar
     8    17    18   ar
     9    18    19   ar
    10    19     8    1
    11     8     9   ar
    12     9    10   ar
    13    10    11   ar
    14    11     7    1
    15     7     1    1
    16     1     2    1
    17     2     3    1
    18     3     4    1
    19     4    24    1
    20    24    25    1
    21    25    26    1
    22    26    27    2
    23    26    28    1
    24    28    29   ar
    25    29    30   ar
    26    30    31   ar
    27    31    32   ar
    28    32    33   ar
    29    33    34   ar
    30    34    35   ar
    31    35    36   ar
    32    30    37    1
    33    37    38    1
    34    38    39    1
    35    39    40    1
    36     4     5    1
    37     5     6    1
    38    11    12   ar
    39    12    13   ar
    40    19    14   ar
    41    13     8   ar
    42     6     1    1
    43    36    28   ar
    44    40    29    1
    45    36    31   ar
@<TRIPOS>MOLECULE
*****
 40 45 0 0 0
SMALL
GASTEIGER

@<TRIPOS>ATOM
      1 N         144.8066  140.7174  162.6235 N.3     1  UNL1       -0.2690
      2 C         144.1171  139.8891  161.5802 C.3     1  UNL1        0.0725
      3 C         143.8114  140.4792  160.2354 C.3     1  UNL1        0.0211
      4 C         144.1952  141.8975  159.9339 C.3     1  UNL1        0.0466
      5 C         144.8847  142.7258  160.9772 C.3     1  UNL1        0.0211
      6 C         145.1904  142.1358  162.3220 C.3     1  UNL1        0.0725
      7 C         145.1123  140.1274  163.9682 C.3     1  UNL1        0.0991
      8 C         141.9453  140.0510  167.1643 C.ar    1  UNL1        0.0002
      9 C         142.3158  141.3471  166.5063 C.ar    1  UNL1       -0.0003
     10 C         143.3714  141.3725  165.4410 C.ar    1  UNL1       -0.0029
     11 C         144.0567  140.1019  165.0336 C.ar    1  UNL1       -0.0061
     12 C         143.6862  138.8058  165.6916 C.ar    1  UNL1       -0.0029
     13 C         142.6306  138.7804  166.7569 C.ar    1  UNL1       -0.0003
     14 C         141.2817  140.0980  169.6757 C.ar    1  UNL1        0.0756
     15 C         140.2261  140.0725  170.7411 C.ar    1  UNL1        0.0064
     16 C         138.7785  139.9745  170.3604 C.ar    1  UNL1        0.0002
     17 C         138.3866  139.9020  168.9143 C.ar    1  UNL1        0.0000
     18 C         139.4421  139.9275  167.8489 C.ar    1  UNL1        0.0002
     19 C         140.8897  140.0255  168.2296 C.ar    1  UNL1        0.0062
     20 C         142.7292  140.1960  170.0564 C.2     1  UNL1        0.3413
     21 O         143.4666  138.9754  170.5220 O.2     1  UNL1       -0.2449
     22 C         142.6516  142.7826  169.8261 C.3     1  UNL1        0.2560
     23 O         143.4394  141.5144  169.9717 O.3     1  UNL1       -0.4413
     24 C         143.8895  142.4876  158.5891 C.3     1  UNL1        0.2087
     25 O         142.4966  142.9430  158.2690 O.3     1  UNL1       -0.4453
     26 C         141.7684  143.8510  159.2151 C.2     1  UNL1        0.3458
     27 O         141.8811  145.3391  159.0627 O.2     1  UNL1       -0.2447
     28 C         140.9274  143.2711  160.3135 C.ar    1  UNL1        0.1283
     29 C         139.8729  142.2164  160.1534 C.ar    1  UNL1        0.2121
     30 N         139.2872  141.9376  161.5059 N.ar    1  UNL1       -0.2989
     31 C         139.9796  142.8200  162.5018 C.ar    1  UNL1        0.0626
     32 C         139.8180  142.9796  163.9845 C.ar    1  UNL1        0.0173
     33 C         140.6701  143.9632  164.7303 C.ar    1  UNL1        0.0015
     34 C         141.6838  144.7874  163.9933 C.ar    1  UNL1        0.0001
     35 C         141.8455  144.6279  162.5106 C.ar    1  UNL1        0.0018
     36 C         140.9933  143.6442  161.7649 C.ar    1  UNL1        0.0266
     37 C         138.1989  140.9163  161.6558 C.3     1  UNL1        0.1127
     38 C         137.6964  140.1737  160.4532 C.3     1  UNL1        0.0719
     39 C         138.2822  140.4524  159.1008 C.3     1  UNL1        0.2091
     40 O         139.3705  141.4738  158.9509 O.3     1  UNL1       -0.4611
@<TRIPOS>BOND
     1    22    23    1
     2    23    20    1
     3    20    21    2
     4    20    14    1
     5    14    15   ar
     6    15    16   ar
     7    16    17   ar
     8    17    18   ar
     9    18    19   ar
    10    19     8    1
    11     8     9   ar
    12     9    10   ar
    13    10    11   ar
    14    11     7    1
    15     7     1    1
    16     1     2    1
    17     2     3    1
    18     3     4    1
    19     4    24    1
    20    24    25    1
    21    25    26    1
    22    26    27    2
    23    26    28    1
    24    28    29   ar
    25    29    30   ar
    26    30    31   ar
    27    31    32   ar
    28    32    33   ar
    29    33    34   ar
    30    34    35   ar
    31    35    36   ar
    32    30    37    1
    33    37    38    1
    34    38    39    1
    35    39    40    1
    36     4     5    1
    37     5     6    1
    38    11    12   ar
    39    12    13   ar
    40    19    14   ar
    41    13     8   ar
    42     6     1    1
    43    36    28   ar
    44    40    29    1
    45    36    31   ar
@<TRIPOS>MOLECULE
*****
 40 45 0 0 0
SMALL
GASTEIGER

@<TRIPOS>ATOM
      1 N         141.7911  137.8413  162.1016 N.3     1  UNL1       -0.2690
      2 C         143.2639  137.9924  161.8609 C.3     1  UNL1        0.0725
      3 C         143.7560  138.6104  160.5858 C.3     1  UNL1        0.0211
      4 C         142.7753  139.0773  159.5513 C.3     1  UNL1        0.0466
      5 C         141.3025  138.9261  159.7920 C.3     1  UNL1        0.0211
      6 C         140.8104  138.3082  161.0671 C.3     1  UNL1        0.0725
      7 C         141.2990  137.2233  163.3767 C.3     1  UNL1        0.0991
      8 C         140.7593  139.7682  167.0486 C.ar    1  UNL1        0.0002
      9 C         142.1333  139.3332  166.6328 C.ar    1  UNL1       -0.0003
     10 C         142.3132  138.4849  165.4089 C.ar    1  UNL1       -0.0029
     11 C         141.1191  138.0716  164.6007 C.ar    1  UNL1       -0.0061
     12 C         139.7450  138.5066  165.0164 C.ar    1  UNL1       -0.0029
     13 C         139.5652  139.3549  166.2404 C.ar    1  UNL1       -0.0003
     14 C         140.5395  142.1109  168.1500 C.ar    1  UNL1        0.0756
     15 C         140.3596  142.9593  169.3738 C.ar    1  UNL1        0.0064
     16 C         140.2195  142.3131  170.7203 C.ar    1  UNL1        0.0002
     17 C         140.2594  140.8187  170.8428 C.ar    1  UNL1        0.0000
     18 C         140.4393  139.9703  169.6189 C.ar    1  UNL1        0.0002
     19 C         140.5794  140.6165  168.2725 C.ar    1  UNL1        0.0062
     20 C         140.6796  142.7571  166.8036 C.2     1  UNL1        0.3413
     21 O         142.0417  142.9739  166.2138 O.2     1  UNL1       -0.2449
     22 C         139.3419  142.8926  164.5805 C.3     1  UNL1        0.2560
     23 O         139.4577  143.1864  166.0469 O.3     1  UNL1       -0.4413
     24 C         143.2674  139.6952  158.2762 C.3     1  UNL1        0.2087
     25 O         143.0901  141.1656  158.0381 O.3     1  UNL1       -0.4453
     26 C         143.9715  142.1516  158.7456 C.2     1  UNL1        0.3458
     27 O         145.3224  142.4864  158.1859 O.2     1  UNL1       -0.2447
     28 C         143.5022  142.8030  160.0127 C.ar    1  UNL1        0.1283
     29 C         142.3460  143.7498  160.1414 C.ar    1  UNL1        0.2121
     30 N         142.2360  144.1538  161.5818 N.ar    1  UNL1       -0.2989
     31 C         143.3242  143.4566  162.3432 C.ar    1  UNL1        0.0626
     32 C         143.7036  143.4742  163.7943 C.ar    1  UNL1        0.0173
     33 C         144.8656  142.6568  164.2756 C.ar    1  UNL1        0.0015
     34 C         145.6482  141.8219  163.3058 C.ar    1  UNL1        0.0001
     35 C         145.2688  141.8044  161.8547 C.ar    1  UNL1        0.0018
     36 C         144.1068  142.6217  161.3734 C.ar    1  UNL1        0.0266
     37 C         141.1592  145.1044  162.0140 C.3     1  UNL1        0.1127
     38 C         140.1923  145.6509  161.0058 C.3     1  UNL1        0.0719
     39 C         140.3023  145.2469  159.5654 C.3     1  UNL1        0.2091
     40 O         141.3791  144.2964  159.1332 O.3     1  UNL1       -0.4611
@<TRIPOS>BOND
     1    22    23    1
     2    23    20    1
     3    20    21    2
     4    20    14    1
     5    14    15   ar
     6    15    16   ar
     7    16    17   ar
     8    17    18   ar
     9    18    19   ar
    10    19     8    1
    11     8     9   ar
    12     9    10   ar
    13    10    11   ar
    14    11     7    1
    15     7     1    1
    16     1     2    1
    17     2     3    1
    18     3     4    1
    19     4    24    1
    20    24    25    1
    21    25    26    1
    22    26    27    2
    23    26    28    1
    24    28    29   ar
    25    29    30   ar
    26    30    31   ar
    27    31    32   ar
    28    32    33   ar
    29    33    34   ar
    30    34    35   ar
    31    35    36   ar
    32    30    37    1
    33    37    38    1
    34    38    39    1
    35    39    40    1
    36     4     5    1
    37     5     6    1
    38    11    12   ar
    39    12    13   ar
    40    19    14   ar
    41    13     8   ar
    42     6     1    1
    43    36    28   ar
    44    40    29    1
    45    36    31   ar
@<TRIPOS>MOLECULE
*****
 40 45 0 0 0
SMALL
GASTEIGER

@<TRIPOS>ATOM
      1 N         144.7794  140.7498  162.3201 N.3     1  UNL1       -0.2690
      2 C         144.0972  139.7765  161.4051 C.3     1  UNL1        0.0725
      3 C         143.7070  140.1970  160.0191 C.3     1  UNL1        0.0211
      4 C         143.9989  141.5909  159.5482 C.3     1  UNL1        0.0466
      5 C         144.6811  142.5642  160.4632 C.3     1  UNL1        0.0211
      6 C         145.0714  142.1437  161.8491 C.3     1  UNL1        0.0725
      7 C         145.1697  140.3292  163.7060 C.3     1  UNL1        0.0991
      8 C         142.0775  140.2006  166.9728 C.ar    1  UNL1        0.0002
      9 C         142.4171  141.5039  166.3124 C.ar    1  UNL1       -0.0003
     10 C         143.4478  141.5467  165.2235 C.ar    1  UNL1       -0.0029
     11 C         144.1390  140.2863  164.7949 C.ar    1  UNL1       -0.0061
     12 C         143.7993  138.9830  165.4554 C.ar    1  UNL1       -0.0029
     13 C         142.7686  138.9402  166.5443 C.ar    1  UNL1       -0.0003
     14 C         139.6099  139.8901  167.7243 C.ar    1  UNL1        0.0756
     15 C         138.5791  139.8472  168.8131 C.ar    1  UNL1        0.0064
     16 C         138.9853  140.0719  170.2395 C.ar    1  UNL1        0.0002
     17 C         140.4221  140.3395  170.5770 C.ar    1  UNL1        0.0000
     18 C         141.4529  140.3824  169.4881 C.ar    1  UNL1        0.0002
     19 C         141.0467  140.1577  168.0617 C.ar    1  UNL1        0.0062
     20 C         139.2038  139.6654  166.2979 C.2     1  UNL1        0.3413
     21 O         138.6249  140.7935  165.4962 O.2     1  UNL1       -0.2449
     22 C         138.9037  138.0685  164.2706 C.3     1  UNL1        0.2560
     23 O         139.3766  138.3127  165.6731 O.3     1  UNL1       -0.4413
     24 C         143.6086  142.0115  158.1622 C.3     1  UNL1        0.2087
     25 O         142.2685  142.6397  157.9185 O.3     1  UNL1       -0.4453
     26 C         141.7310  143.6572  158.8805 C.2     1  UNL1        0.3458
     27 O         141.9649  145.1185  158.6349 O.2     1  UNL1       -0.2447
     28 C         140.9595  143.2137  160.0880 C.ar    1  UNL1        0.1283
     29 C         139.8745  142.1782  160.1098 C.ar    1  UNL1        0.2121
     30 N         139.3821  142.0525  161.5211 N.ar    1  UNL1       -0.2989
     31 C         140.1628  143.0102  162.3715 C.ar    1  UNL1        0.0626
     32 C         140.1119  143.3215  163.8380 C.ar    1  UNL1        0.0173
     33 C         141.0359  144.3506  164.4187 C.ar    1  UNL1        0.0015
     34 C         142.0108  145.0683  163.5330 C.ar    1  UNL1        0.0001
     35 C         142.0617  144.7570  162.0666 C.ar    1  UNL1        0.0018
     36 C         141.1377  143.7280  161.4858 C.ar    1  UNL1        0.0266
     37 C         138.2865  141.0821  161.8494 C.3     1  UNL1        0.1127
     38 C         137.6832  140.2374  160.7665 C.3     1  UNL1        0.0719
     39 C         138.1756  140.3632  159.3552 C.3     1  UNL1        0.2091
     40 O         139.2713  141.3336  159.0269 O.3     1  UNL1       -0.4611
@<TRIPOS>BOND
     1    22    23    1
     2    23    20    1
     3    20    21    2
     4    20    14    1
     5    14    15   ar
     6    15    16   ar
     7    16    17   ar
     8    17    18   ar
     9    18    19   ar
    10    19     8    1
    11     8     9   ar
    12     9    10   ar
    13    10    11   ar
    14    11     7    1
    15     7     1    1
    16     1     2    1
    17     2     3    1
    18     3     4    1
    19     4    24    1
    20    24    25    1
    21    25    26    1
    22    26    27    2
    23    26    28    1
    24    28    29   ar
    25    29    30   ar
    26    30    31   ar
    27    31    32   ar
    28    32    33   ar
    29    33    34   ar
    30    34    35   ar
    31    35    36   ar
    32    30    37    1
    33    37    38    1
    34    38    39    1
    35    39    40    1
    36     4     5    1
    37     5     6    1
    38    11    12   ar
    39    12    13   ar
    40    19    14   ar
    41    13     8   ar
    42     6     1    1
    43    36    28   ar
    44    40    29    1
    45    36    31   ar
@<TRIPOS>MOLECULE
*****
 40 45 0 0 0
SMALL
GASTEIGER

@<TRIPOS>ATOM
      1 N         142.3197  144.4110  161.5675 N.3     1  UNL1       -0.2690
      2 C         142.7480  143.3387  160.6102 C.3     1  UNL1        0.0725
      3 C         141.8855  142.9975  159.4312 C.3     1  UNL1        0.0211
      4 C         140.5948  143.7288  159.2096 C.3     1  UNL1        0.0466
      5 C         140.1665  144.8012  160.1669 C.3     1  UNL1        0.0211
      6 C         141.0289  145.1423  161.3459 C.3     1  UNL1        0.0725
      7 C         143.1821  144.7521  162.7464 C.3     1  UNL1        0.0991
      8 C         142.8640  142.3486  166.5374 C.ar    1  UNL1        0.0002
      9 C         144.1951  142.8810  166.0964 C.ar    1  UNL1       -0.0003
     10 C         144.3011  143.6822  164.8327 C.ar    1  UNL1       -0.0029
     11 C         143.0760  143.9510  164.0101 C.ar    1  UNL1       -0.0061
     12 C         141.7448  143.4185  164.4511 C.ar    1  UNL1       -0.0029
     13 C         141.6388  142.6173  165.7148 C.ar    1  UNL1       -0.0003
     14 C         142.6623  140.0519  167.7351 C.ar    1  UNL1        0.0756
     15 C         142.5562  139.2506  168.9987 C.ar    1  UNL1        0.0064
     16 C         142.5457  139.9449  170.3283 C.ar    1  UNL1        0.0002
     17 C         142.6413  141.4404  170.3943 C.ar    1  UNL1        0.0000
     18 C         142.7474  142.2417  169.1307 C.ar    1  UNL1        0.0002
     19 C         142.7579  141.5474  167.8011 C.ar    1  UNL1        0.0062
     20 C         142.6728  139.3576  166.4055 C.2     1  UNL1        0.3413
     21 O         141.3801  138.9588  165.7574 O.2     1  UNL1       -0.2449
     22 C         144.2509  139.6178  164.3581 C.3     1  UNL1        0.2560
     23 O         143.9760  139.0621  165.7240 O.3     1  UNL1       -0.4413
     24 C         139.7324  143.3877  158.0307 C.3     1  UNL1        0.2087
     25 O         138.3829  142.7681  158.2429 O.3     1  UNL1       -0.4453
     26 C         138.2719  141.3140  158.5935 C.2     1  UNL1        0.3458
     27 O         137.4966  140.3856  157.7063 O.2     1  UNL1       -0.2447
     28 C         138.9363  140.7881  159.8313 C.ar    1  UNL1        0.1283
     29 C         138.5524  141.1138  161.2442 C.ar    1  UNL1        0.2121
     30 N         139.4801  140.3712  162.1595 N.ar    1  UNL1       -0.2989
     31 C         140.4373  139.5864  161.3123 C.ar    1  UNL1        0.0626
     32 C         141.5716  138.6705  161.6652 C.ar    1  UNL1        0.0173
     33 C         142.3697  138.0122  160.5791 C.ar    1  UNL1        0.0015
     34 C         142.0336  138.2699  159.1401 C.ar    1  UNL1        0.0001
     35 C         140.8994  139.1858  158.7872 C.ar    1  UNL1        0.0018
     36 C         140.1013  139.8441  159.8733 C.ar    1  UNL1        0.0266
     37 C         139.3333  140.5054  163.6463 C.3     1  UNL1        0.1127
     38 C         138.2589  141.3824  164.2177 C.3     1  UNL1        0.0719
     39 C         137.3312  142.1251  163.3024 C.3     1  UNL1        0.2091
     40 O         137.4780  141.9908  161.8157 O.3     1  UNL1       -0.4611
@<TRIPOS>BOND
     1    22    23    1
     2    23    20    1
     3    20    21    2
     4    20    14    1
     5    14    15   ar
     6    15    16   ar
     7    16    17   ar
     8    17    18   ar
     9    18    19   ar
    10    19     8    1
    11     8     9   ar
    12     9    10   ar
    13    10    11   ar
    14    11     7    1
    15     7     1    1
    16     1     2    1
    17     2     3    1
    18     3     4    1
    19     4    24    1
    20    24    25    1
    21    25    26    1
    22    26    27    2
    23    26    28    1
    24    28    29   ar
    25    29    30   ar
    26    30    31   ar
    27    31    32   ar
    28    32    33   ar
    29    33    34   ar
    30    34    35   ar
    31    35    36   ar
    32    30    37    1
    33    37    38    1
    34    38    39    1
    35    39    40    1
    36     4     5    1
    37     5     6    1
    38    11    12   ar
    39    12    13   ar
    40    19    14   ar
    41    13     8   ar
    42     6     1    1
    43    36    28   ar
    44    40    29    1
    45    36    31   ar
@<TRIPOS>MOLECULE
*****
 40 45 0 0 0
SMALL
GASTEIGER

@<TRIPOS>ATOM
      1 N         138.8547  139.8183  161.0802 N.3     1  UNL1       -0.2690
      2 C         137.9109  140.7896  160.4354 C.3     1  UNL1        0.0725
      3 C         138.4087  141.7294  159.3777 C.3     1  UNL1        0.0211
      4 C         139.8504  141.6980  158.9647 C.3     1  UNL1        0.0466
      5 C         140.7942  140.7268  159.6095 C.3     1  UNL1        0.0211
      6 C         140.2964  139.7869  160.6673 C.3     1  UNL1        0.0725
      7 C         138.3568  138.8785  162.1380 C.3     1  UNL1        0.0991
      8 C         139.3657  139.6181  166.4606 C.ar    1  UNL1        0.0002
      9 C         139.0238  140.7699  165.5625 C.ar    1  UNL1       -0.0003
     10 C         138.6876  140.5233  164.1216 C.ar    1  UNL1       -0.0029
     11 C         138.6931  139.1250  163.5788 C.ar    1  UNL1       -0.0061
     12 C         139.0350  137.9732  164.4770 C.ar    1  UNL1       -0.0029
     13 C         139.3713  138.2198  165.9178 C.ar    1  UNL1       -0.0003
     14 C         141.1292  140.0732  168.3134 C.ar    1  UNL1        0.0756
     15 C         141.4655  140.3197  169.7543 C.ar    1  UNL1        0.0064
     16 C         140.3747  140.3577  170.7832 C.ar    1  UNL1        0.0002
     17 C         138.9475  140.1491  170.3712 C.ar    1  UNL1        0.0000
     18 C         138.6112  139.9026  168.9304 C.ar    1  UNL1        0.0002
     19 C         139.7020  139.8646  167.9015 C.ar    1  UNL1        0.0062
     20 C         142.2200  140.0353  167.2846 C.2     1  UNL1        0.3413
     21 O         142.5400  141.2636  166.4851 O.2     1  UNL1       -0.2449
     22 C         143.3238  138.3366  165.6579 C.3     1  UNL1        0.2560
     23 O         142.9908  138.7691  167.0551 O.3     1  UNL1       -0.4413
     24 C         140.3482  142.6379  157.9070 C.3     1  UNL1        0.2087
     25 O         141.1025  143.8744  158.2970 O.3     1  UNL1       -0.4453
     26 C         140.7106  144.6345  159.5293 C.2     1  UNL1        0.3458
     27 O         139.8120  145.8305  159.4186 O.2     1  UNL1       -0.2447
     28 C         141.2173  144.1989  160.8722 C.ar    1  UNL1        0.1283
     29 C         142.5564  143.5837  161.1522 C.ar    1  UNL1        0.2121
     30 N         142.6406  143.3065  162.6239 N.ar    1  UNL1       -0.2989
     31 C         141.3535  143.7503  163.2535 C.ar    1  UNL1        0.0626
     32 C         140.8688  143.7235  164.6728 C.ar    1  UNL1        0.0173
     33 C         139.5045  144.2482  165.0094 C.ar    1  UNL1        0.0015
     34 C         138.6249  144.7997  163.9267 C.ar    1  UNL1        0.0001
     35 C         139.1096  144.8265  162.5075 C.ar    1  UNL1        0.0018
     36 C         140.4738  144.3018  162.1709 C.ar    1  UNL1        0.0266
     37 C         143.8783  142.6858  163.2006 C.3     1  UNL1        0.1127
     38 C         145.0320  142.3422  162.3056 C.3     1  UNL1        0.0719
     39 C         144.9479  142.6194  160.8338 C.3     1  UNL1        0.2091
     40 O         143.7101  143.2402  160.2571 O.3     1  UNL1       -0.4611
@<TRIPOS>BOND
     1    22    23    1
     2    23    20    1
     3    20    21    2
     4    20    14    1
     5    14    15   ar
     6    15    16   ar
     7    16    17   ar
     8    17    18   ar
     9    18    19   ar
    10    19     8    1
    11     8     9   ar
    12     9    10   ar
    13    10    11   ar
    14    11     7    1
    15     7     1    1
    16     1     2    1
    17     2     3    1
    18     3     4    1
    19     4    24    1
    20    24    25    1
    21    25    26    1
    22    26    27    2
    23    26    28    1
    24    28    29   ar
    25    29    30   ar
    26    30    31   ar
    27    31    32   ar
    28    32    33   ar
    29    33    34   ar
    30    34    35   ar
    31    35    36   ar
    32    30    37    1
    33    37    38    1
    34    38    39    1
    35    39    40    1
    36     4     5    1
    37     5     6    1
    38    11    12   ar
    39    12    13   ar
    40    19    14   ar
    41    13     8   ar
    42     6     1    1
    43    36    28   ar
    44    40    29    1
    45    36    31   ar
@<TRIPOS>MOLECULE
*****
 40 45 0 0 0
SMALL
GASTEIGER

@<TRIPOS>ATOM
      1 N         137.6735  141.5496  161.8292 N.3     1  UNL1       -0.2690
      2 C         138.4375  142.6021  161.0819 C.3     1  UNL1        0.0725
      3 C         138.9506  142.3183  159.7013 C.3     1  UNL1        0.0211
      4 C         138.6997  140.9819  159.0679 C.3     1  UNL1        0.0466
      5 C         137.9357  139.9294  159.8152 C.3     1  UNL1        0.0211
      6 C         137.4226  140.2132  161.1959 C.3     1  UNL1        0.0725
      7 C         137.1604  141.8334  163.2099 C.3     1  UNL1        0.0991
      8 C         140.0485  142.3444  166.6227 C.ar    1  UNL1        0.0002
      9 C         139.5139  140.9830  166.2900 C.ar    1  UNL1       -0.0003
     10 C         138.5512  140.8127  165.1524 C.ar    1  UNL1       -0.0029
     11 C         138.1231  142.0038  164.3474 C.ar    1  UNL1       -0.0061
     12 C         138.6577  143.3653  164.6802 C.ar    1  UNL1       -0.0029
     13 C         139.6204  143.5355  165.8178 C.ar    1  UNL1       -0.0003
     14 C         142.4537  142.1427  167.5842 C.ar    1  UNL1        0.0756
     15 C         143.4164  142.3131  168.7218 C.ar    1  UNL1        0.0064
     16 C         142.9367  142.8555  170.0354 C.ar    1  UNL1        0.0002
     17 C         141.4943  143.2275  170.2115 C.ar    1  UNL1        0.0000
     18 C         140.5316  143.0572  169.0740 C.ar    1  UNL1        0.0002
     19 C         141.0113  142.5148  167.7603 C.ar    1  UNL1        0.0062
     20 C         142.9334  141.6003  166.2706 C.2     1  UNL1        0.3413
     21 O         143.1151  142.5210  165.1003 O.2     1  UNL1       -0.2449
     22 C         142.7486  139.1682  167.1655 C.3     1  UNL1        0.2560
     23 O         143.2313  140.1372  166.1271 O.3     1  UNL1       -0.4413
     24 C         139.2128  140.6980  157.6873 C.3     1  UNL1        0.2087
     25 O         140.6620  140.3724  157.4780 O.3     1  UNL1       -0.4453
     26 C         141.3260  139.3277  158.3251 C.2     1  UNL1        0.3458
     27 O         141.4604  137.9232  157.8156 O.2     1  UNL1       -0.2447
     28 C         141.8555  139.6873  159.6817 C.ar    1  UNL1        0.1283
     29 C         142.9090  140.7145  159.9730 C.ar    1  UNL1        0.2121
     30 N         143.1291  140.7448  161.4565 N.ar    1  UNL1       -0.2989
     31 C         142.2116  139.7363  162.0819 C.ar    1  UNL1        0.0626
     32 C         141.9913  139.3287  163.5085 C.ar    1  UNL1        0.0173
     33 C         140.9838  138.2675  163.8382 C.ar    1  UNL1        0.0015
     34 C         140.1966  137.6139  162.7413 C.ar    1  UNL1        0.0001
     35 C         140.4170  138.0215  161.3147 C.ar    1  UNL1        0.0018
     36 C         141.4245  139.0827  160.9850 C.ar    1  UNL1        0.0266
     37 C         144.1365  141.6868  162.0461 C.3     1  UNL1        0.1127
     38 C         144.9238  142.5986  161.1522 C.3     1  UNL1        0.0719
     39 C         144.7038  142.5683  159.6688 C.3     1  UNL1        0.2091
     40 O         143.6963  141.6262  159.0792 O.3     1  UNL1       -0.4611
@<TRIPOS>BOND
     1    22    23    1
     2    23    20    1
     3    20    21    2
     4    20    14    1
     5    14    15   ar
     6    15    16   ar
     7    16    17   ar
     8    17    18   ar
     9    18    19   ar
    10    19     8    1
    11     8     9   ar
    12     9    10   ar
    13    10    11   ar
    14    11     7    1
    15     7     1    1
    16     1     2    1
    17     2     3    1
    18     3     4    1
    19     4    24    1
    20    24    25    1
    21    25    26    1
    22    26    27    2
    23    26    28    1
    24    28    29   ar
    25    29    30   ar
    26    30    31   ar
    27    31    32   ar
    28    32    33   ar
    29    33    34   ar
    30    34    35   ar
    31    35    36   ar
    32    30    37    1
    33    37    38    1
    34    38    39    1
    35    39    40    1
    36     4     5    1
    37     5     6    1
    38    11    12   ar
    39    12    13   ar
    40    19    14   ar
    41    13     8   ar
    42     6     1    1
    43    36    28   ar
    44    40    29    1
    45    36    31   ar
@<TRIPOS>MOLECULE
*****
 40 45 0 0 0
SMALL
GASTEIGER

@<TRIPOS>ATOM
      1 N         139.0250  138.3284  162.0457 N.3     1  UNL1       -0.2690
      2 C         137.9149  139.3362  162.0911 C.3     1  UNL1        0.0725
      3 C         137.5610  140.1181  160.8609 C.3     1  UNL1        0.0211
      4 C         138.3171  139.8922  159.5853 C.3     1  UNL1        0.0466
      5 C         139.4271  138.8844  159.5399 C.3     1  UNL1        0.0211
      6 C         139.7811  138.1025  160.7701 C.3     1  UNL1        0.0725
      7 C         139.3789  137.5465  163.2759 C.3     1  UNL1        0.0991
      8 C         141.4402  139.5816  166.7197 C.ar    1  UNL1        0.0002
      9 C         139.9786  139.8151  166.4764 C.ar    1  UNL1       -0.0003
     10 C         139.2915  139.1367  165.3285 C.ar    1  UNL1       -0.0029
     11 C         140.0660  138.2248  164.4238 C.ar    1  UNL1       -0.0061
     12 C         141.5277  137.9913  164.6671 C.ar    1  UNL1       -0.0029
     13 C         142.2147  138.6696  165.8150 C.ar    1  UNL1       -0.0003
     14 C         142.7252  141.6233  167.6841 C.ar    1  UNL1        0.0756
     15 C         143.4123  142.3017  168.8319 C.ar    1  UNL1        0.0064
     16 C         143.5016  141.6166  170.1634 C.ar    1  UNL1        0.0002
     17 C         142.9037  140.2532  170.3469 C.ar    1  UNL1        0.0000
     18 C         142.2165  139.5748  169.1991 C.ar    1  UNL1        0.0002
     19 C         142.1273  140.2599  167.8676 C.ar    1  UNL1        0.0062
     20 C         142.6360  142.3083  166.3526 C.2     1  UNL1        0.3413
     21 O         141.3253  142.8666  165.8827 O.2     1  UNL1       -0.2449
     22 C         144.1185  143.7090  164.7432 C.3     1  UNL1        0.2560
     23 O         143.8573  142.4352  165.4911 O.3     1  UNL1       -0.4413
     24 C         137.9632  140.6741  158.3551 C.3     1  UNL1        0.2087
     25 O         138.8060  141.8440  157.9417 O.3     1  UNL1       -0.4453
     26 C         139.6286  142.5735  158.9619 C.2     1  UNL1        0.3458
     27 O         139.0027  143.6483  159.8006 O.2     1  UNL1       -0.2447
     28 C         141.0770  142.2284  159.1436 C.ar    1  UNL1        0.1283
     29 C         142.1455  142.3289  158.0956 C.ar    1  UNL1        0.2121
     30 N         143.4400  141.8848  158.7096 N.ar    1  UNL1       -0.2989
     31 C         143.1716  141.5098  160.1369 C.ar    1  UNL1        0.0626
     32 C         144.0684  141.0024  161.2270 C.ar    1  UNL1        0.0173
     33 C         143.5047  140.7074  162.5853 C.ar    1  UNL1        0.0015
     34 C         142.0442  140.9197  162.8536 C.ar    1  UNL1        0.0001
     35 C         141.1475  141.4271  161.7635 C.ar    1  UNL1        0.0018
     36 C         141.7112  141.7222  160.4052 C.ar    1  UNL1        0.0266
     37 C         144.6960  141.8793  157.8895 C.3     1  UNL1        0.1127
     38 C         144.6574  142.3178  156.4556 C.3     1  UNL1        0.0719
     39 C         143.3629  142.7620  155.8417 C.3     1  UNL1        0.2091
     40 O         142.1069  142.7675  156.6617 O.3     1  UNL1       -0.4611
@<TRIPOS>BOND
     1    22    23    1
     2    23    20    1
     3    20    21    2
     4    20    14    1
     5    14    15   ar
     6    15    16   ar
     7    16    17   ar
     8    17    18   ar
     9    18    19   ar
    10    19     8    1
    11     8     9   ar
    12     9    10   ar
    13    10    11   ar
    14    11     7    1
    15     7     1    1
    16     1     2    1
    17     2     3    1
    18     3     4    1
    19     4    24    1
    20    24    25    1
    21    25    26    1
    22    26    27    2
    23    26    28    1
    24    28    29   ar
    25    29    30   ar
    26    30    31   ar
    27    31    32   ar
    28    32    33   ar
    29    33    34   ar
    30    34    35   ar
    31    35    36   ar
    32    30    37    1
    33    37    38    1
    34    38    39    1
    35    39    40    1
    36     4     5    1
    37     5     6    1
    38    11    12   ar
    39    12    13   ar
    40    19    14   ar
    41    13     8   ar
    42     6     1    1
    43    36    28   ar
    44    40    29    1
    45    36    31   ar
