@<TRIPOS>MOLECULE
*****
 29 31 0 0 0
SMALL
GASTEIGER

@<TRIPOS>ATOM
      1 C         139.3326  141.9346  163.6976 C.ar    1  UNL1        0.0541
      2 C         138.2201  142.8928  163.3909 C.ar    1  UNL1        0.0180
      3 C         137.8389  143.1683  161.9666 C.ar    1  UNL1        0.0382
      4 C         138.5702  142.4857  160.8490 C.ar    1  UNL1        0.1386
      5 C         139.6828  141.5275  161.1557 C.ar    1  UNL1        0.0382
      6 C         140.0639  141.2519  162.5800 C.ar    1  UNL1        0.0180
      7 C         140.8573  140.8323  169.3950 C.2     1  UNL1        0.2251
      8 O         140.2988  139.6333  170.1024 O.2     1  UNL1       -0.2749
      9 N         140.4762  141.1079  167.9707 N.am    1  UNL1       -0.2695
     10 C         141.0347  142.3069  167.2633 C.3     1  UNL1        0.1157
     11 C         140.6535  142.5824  165.8390 C.3     1  UNL1        0.1197
     12 N         139.7138  141.6590  165.1220 N.am    1  UNL1       -0.2555
     13 C         139.1553  140.4600  165.8293 C.2     1  UNL1        0.2497
     14 O         138.2155  139.5365  165.1123 O.2     1  UNL1       -0.2727
     15 C         139.5364  140.1844  167.2537 C.3     1  UNL1        0.1797
     16 C         140.6348  142.5928  170.5573 C.3     1  UNL1        0.0091
     17 C         141.7971  141.7557  170.1120 C.3     1  UNL1        0.0691
     18 C         142.9594  140.9187  169.6668 C.3     1  UNL1        0.0091
     19 C         142.7369  142.6792  170.8291 C.3     1  UNL1        0.0091
     20 O         138.1891  142.7613  159.4246 O.3     1  UNL1       -0.4754
     21 C         139.2507  142.8581  158.3694 C.3     1  UNL1        0.2068
     22 C         139.9506  144.1625  158.1272 C.3     1  UNL1        0.0646
     23 C         141.2381  144.4655  158.8347 C.3     1  UNL1        0.0759
     24 N         141.2374  144.7366  160.3100 N.3     1  UNL1       -0.2726
     25 C         142.2361  144.0557  161.1982 C.3     1  UNL1        0.0721
     26 C         142.2354  144.3268  162.6735 C.3     1  UNL1        0.0174
     27 C         141.2359  145.2787  163.2606 C.3     1  UNL1        0.0029
     28 C         140.2371  145.9597  162.3724 C.3     1  UNL1        0.0174
     29 C         140.2378  145.6886  160.8971 C.3     1  UNL1        0.0721
@<TRIPOS>BOND
     1    16    17    1
     2    17    18    1
     3    17    19    1
     4    17     7    1
     5     7     8    2
     6     7     9   am
     7     9    10    1
     8    10    11    1
     9    11    12    1
    10    12     1    1
    11     1     2   ar
    12     2     3   ar
    13     3     4   ar
    14     4    20    1
    15    20    21    1
    16    21    22    1
    17    22    23    1
    18    23    24    1
    19    24    25    1
    20    25    26    1
    21    26    27    1
    22    27    28    1
    23    28    29    1
    24     4     5   ar
    25     5     6   ar
    26    12    13   am
    27    13    14    2
    28    13    15    1
    29    15     9    1
    30     6     1   ar
    31    29    24    1
@<TRIPOS>MOLECULE
*****
 29 31 0 0 0
SMALL
GASTEIGER

@<TRIPOS>ATOM
      1 C         138.7509  140.1135  164.3608 C.ar    1  UNL1        0.0541
      2 C         138.8776  138.7555  163.7366 C.ar    1  UNL1        0.0180
      3 C         138.3780  138.5216  162.3418 C.ar    1  UNL1        0.0382
      4 C         137.7516  139.6457  161.5711 C.ar    1  UNL1        0.1386
      5 C         137.6249  141.0037  162.1953 C.ar    1  UNL1        0.0382
      6 C         138.1246  141.2376  163.5902 C.ar    1  UNL1        0.0180
      7 C         140.7496  141.0491  169.9403 C.2     1  UNL1        0.2251
      8 O         140.1226  140.3227  171.0932 O.2     1  UNL1       -0.2749
      9 N         140.2499  140.8152  168.5454 N.am    1  UNL1       -0.2695
     10 C         140.8769  141.5415  167.3925 C.3     1  UNL1        0.1157
     11 C         140.3772  141.3076  165.9976 C.3     1  UNL1        0.1197
     12 N         139.2506  140.3474  165.7557 N.am    1  UNL1       -0.2555
     13 C         138.6236  139.6211  166.9086 C.2     1  UNL1        0.2497
     14 O         137.4969  138.6608  166.6667 O.2     1  UNL1       -0.2727
     15 C         139.1233  139.8549  168.3035 C.3     1  UNL1        0.1797
     16 C         142.8504  140.8688  170.1724 C.3     1  UNL1        0.0091
     17 C         141.8762  142.0093  170.1822 C.3     1  UNL1        0.0691
     18 C         140.9021  143.1498  170.1920 C.3     1  UNL1        0.0091
     19 C         143.0029  142.9696  170.4242 C.3     1  UNL1        0.0091
     20 O         137.2519  139.4118  160.1763 O.3     1  UNL1       -0.4754
     21 C         137.8242  140.1965  159.0332 C.3     1  UNL1        0.2068
     22 C         139.2141  139.9092  158.5476 C.3     1  UNL1        0.0646
     23 C         140.3866  140.6010  159.1775 C.3     1  UNL1        0.0759
     24 N         141.0845  139.9772  160.3496 N.3     1  UNL1       -0.2726
     25 C         141.4368  138.5194  160.3238 C.3     1  UNL1        0.0721
     26 C         142.1347  137.8956  161.4959 C.3     1  UNL1        0.0174
     27 C         142.4803  138.7296  162.6938 C.3     1  UNL1        0.0029
     28 C         142.1280  140.1875  162.7196 C.3     1  UNL1        0.0174
     29 C         141.4301  140.8113  161.5475 C.3     1  UNL1        0.0721
@<TRIPOS>BOND
     1    16    17    1
     2    17    18    1
     3    17    19    1
     4    17     7    1
     5     7     8    2
     6     7     9   am
     7     9    10    1
     8    10    11    1
     9    11    12    1
    10    12     1    1
    11     1     2   ar
    12     2     3   ar
    13     3     4   ar
    14     4    20    1
    15    20    21    1
    16    21    22    1
    17    22    23    1
    18    23    24    1
    19    24    25    1
    20    25    26    1
    21    26    27    1
    22    27    28    1
    23    28    29    1
    24     4     5   ar
    25     5     6   ar
    26    12    13   am
    27    13    14    2
    28    13    15    1
    29    15     9    1
    30     6     1   ar
    31    29    24    1
@<TRIPOS>MOLECULE
*****
 29 31 0 0 0
SMALL
GASTEIGER

@<TRIPOS>ATOM
      1 C         142.8473  139.5062  164.1032 C.ar    1  UNL1        0.0541
      2 C         143.7743  140.3390  163.2683 C.ar    1  UNL1        0.0180
      3 C         144.0770  139.9364  161.8554 C.ar    1  UNL1        0.0382
      4 C         143.4527  138.7011  161.2773 C.ar    1  UNL1        0.1386
      5 C         142.5257  137.8683  162.1122 C.ar    1  UNL1        0.0382
      6 C         142.2230  138.2709  163.5251 C.ar    1  UNL1        0.0180
      7 C         141.6365  141.1164  169.7548 C.2     1  UNL1        0.2251
      8 O         142.1409  140.2841  170.8962 O.2     1  UNL1       -0.2749
      9 N         141.9392  140.7138  168.3419 N.am    1  UNL1       -0.2695
     10 C         141.4348  141.5461  167.2005 C.3     1  UNL1        0.1157
     11 C         141.7375  141.1436  165.7876 C.3     1  UNL1        0.1197
     12 N         142.5446  139.9087  165.5161 N.am    1  UNL1       -0.2555
     13 C         143.0490  139.0764  166.6575 C.2     1  UNL1        0.2497
     14 O         143.8561  137.8415  166.3860 O.2     1  UNL1       -0.2727
     15 C         142.7463  139.4790  168.0704 C.3     1  UNL1        0.1797
     16 C         139.5711  141.5355  169.9957 C.3     1  UNL1        0.0091
     17 C         140.8294  142.3512  170.0263 C.3     1  UNL1        0.0691
     18 C         142.0878  143.1669  170.0570 C.3     1  UNL1        0.0091
     19 C         140.0224  143.5862  170.2978 C.3     1  UNL1        0.0091
     20 O         143.7554  138.2985  159.8644 O.3     1  UNL1       -0.4754
     21 C         142.6487  137.8403  158.9616 C.3     1  UNL1        0.2068
     22 C         141.6208  138.8200  158.4783 C.3     1  UNL1        0.0646
     23 C         140.1919  138.6844  158.9145 C.3     1  UNL1        0.0759
     24 N         139.7863  139.1054  160.2959 N.3     1  UNL1       -0.2726
     25 C         138.9579  138.1888  161.1464 C.3     1  UNL1        0.0721
     26 C         138.5523  138.6098  162.5278 C.3     1  UNL1        0.0174
     27 C         138.9750  139.9475  163.0586 C.3     1  UNL1        0.0029
     28 C         139.8034  140.8642  162.2081 C.3     1  UNL1        0.0174
     29 C         140.2091  140.4432  160.8267 C.3     1  UNL1        0.0721
@<TRIPOS>BOND
     1    16    17    1
     2    17    18    1
     3    17    19    1
     4    17     7    1
     5     7     8    2
     6     7     9   am
     7     9    10    1
     8    10    11    1
     9    11    12    1
    10    12     1    1
    11     1     2   ar
    12     2     3   ar
    13     3     4   ar
    14     4    20    1
    15    20    21    1
    16    21    22    1
    17    22    23    1
    18    23    24    1
    19    24    25    1
    20    25    26    1
    21    26    27    1
    22    27    28    1
    23    28    29    1
    24     4     5   ar
    25     5     6   ar
    26    12    13   am
    27    13    14    2
    28    13    15    1
    29    15     9    1
    30     6     1   ar
    31    29    24    1
@<TRIPOS>MOLECULE
*****
 29 31 0 0 0
SMALL
GASTEIGER

@<TRIPOS>ATOM
      1 C         139.9178  139.5943  163.9830 C.ar    1  UNL1        0.0541
      2 C         139.2522  140.5102  162.9991 C.ar    1  UNL1        0.0180
      3 C         139.0949  140.0874  161.5686 C.ar    1  UNL1        0.0382
      4 C         139.6031  138.7486  161.1219 C.ar    1  UNL1        0.1386
      5 C         140.2687  137.8328  162.1059 C.ar    1  UNL1        0.0382
      6 C         140.4260  138.2556  163.5364 C.ar    1  UNL1        0.0180
      7 C         140.5470  141.2856  169.7052 C.2     1  UNL1        0.2251
      8 O         139.5943  140.7777  170.7465 O.2     1  UNL1       -0.2749
      9 N         140.3897  140.8628  168.2747 N.am    1  UNL1       -0.2695
     10 C         141.3424  141.3706  167.2334 C.3     1  UNL1        0.1157
     11 C         141.1851  140.9478  165.8029 C.3     1  UNL1        0.1197
     12 N         140.0751  140.0171  165.4136 N.am    1  UNL1       -0.2555
     13 C         139.1223  139.5093  166.4549 C.2     1  UNL1        0.2497
     14 O         138.0122  138.5785  166.0656 O.2     1  UNL1       -0.2727
     15 C         139.2796  139.9321  167.8854 C.3     1  UNL1        0.1797
     16 C         140.7610  143.3918  169.8392 C.3     1  UNL1        0.0091
     17 C         141.6571  142.2163  170.0945 C.3     1  UNL1        0.0691
     18 C         142.5531  141.0408  170.3498 C.3     1  UNL1        0.0091
     19 C         142.7672  143.1470  170.4838 C.3     1  UNL1        0.0091
     20 O         139.4458  138.3258  159.6914 O.3     1  UNL1       -0.4754
     21 C         140.4004  138.8313  158.6506 C.3     1  UNL1        0.2068
     22 C         141.7736  138.2377  158.5409 C.3     1  UNL1        0.0646
     23 C         142.9739  139.0465  158.9349 C.3     1  UNL1        0.0759
     24 N         143.1827  139.4284  160.3703 N.3     1  UNL1       -0.2726
     25 C         142.7125  140.7632  160.8673 C.3     1  UNL1        0.0721
     26 C         142.9213  141.1451  162.3028 C.3     1  UNL1        0.0174
     27 C         143.6002  140.1922  163.2413 C.3     1  UNL1        0.0029
     28 C         144.0705  138.8572  162.7443 C.3     1  UNL1        0.0174
     29 C         143.8617  138.4753  161.3088 C.3     1  UNL1        0.0721
@<TRIPOS>BOND
     1    16    17    1
     2    17    18    1
     3    17    19    1
     4    17     7    1
     5     7     8    2
     6     7     9   am
     7     9    10    1
     8    10    11    1
     9    11    12    1
    10    12     1    1
    11     1     2   ar
    12     2     3   ar
    13     3     4   ar
    14     4    20    1
    15    20    21    1
    16    21    22    1
    17    22    23    1
    18    23    24    1
    19    24    25    1
    20    25    26    1
    21    26    27    1
    22    27    28    1
    23    28    29    1
    24     4     5   ar
    25     5     6   ar
    26    12    13   am
    27    13    14    2
    28    13    15    1
    29    15     9    1
    30     6     1   ar
    31    29    24    1
@<TRIPOS>MOLECULE
*****
 29 31 0 0 0
SMALL
GASTEIGER

@<TRIPOS>ATOM
      1 C         139.6598  139.3482  164.2685 C.ar    1  UNL1        0.0541
      2 C         138.3737  139.6412  163.5544 C.ar    1  UNL1        0.0180
      3 C         138.1654  139.1498  162.1526 C.ar    1  UNL1        0.0382
      4 C         139.2432  138.3654  161.4649 C.ar    1  UNL1        0.1386
      5 C         140.5293  138.0724  162.1790 C.ar    1  UNL1        0.0382
      6 C         140.7376  138.5638  163.5808 C.ar    1  UNL1        0.0180
      7 C         140.4930  141.3138  169.8759 C.2     1  UNL1        0.2251
      8 O         139.5847  140.8502  170.9759 O.2     1  UNL1       -0.2749
      9 N         140.2847  140.8224  168.4740 N.am    1  UNL1       -0.2695
     10 C         141.1929  141.2861  167.3740 C.3     1  UNL1        0.1157
     11 C         140.9846  140.7947  165.9722 C.3     1  UNL1        0.1197
     12 N         139.8681  139.8396  165.6704 N.am    1  UNL1       -0.2555
     13 C         138.9598  139.3760  166.7704 C.2     1  UNL1        0.2497
     14 O         137.8432  138.4209  166.4686 O.2     1  UNL1       -0.2727
     15 C         139.1681  139.8674  168.1722 C.3     1  UNL1        0.1797
     16 C         140.7036  143.4246  169.8721 C.3     1  UNL1        0.0091
     17 C         141.6095  142.2689  170.1777 C.3     1  UNL1        0.0691
     18 C         142.5155  141.1131  170.4833 C.3     1  UNL1        0.0091
     19 C         142.7262  143.2239  170.4796 C.3     1  UNL1        0.0091
     20 O         139.0349  137.8740  160.0630 O.3     1  UNL1       -0.4754
     21 C         139.6221  138.6300  158.9082 C.3     1  UNL1        0.2068
     22 C         139.1557  140.0241  158.6096 C.3     1  UNL1        0.0646
     23 C         139.9903  141.1993  159.0248 C.3     1  UNL1        0.0759
     24 N         139.7609  141.8485  160.3575 N.3     1  UNL1       -0.2726
     25 C         140.8656  141.8906  161.3713 C.3     1  UNL1        0.0721
     26 C         140.6362  142.5398  162.7039 C.3     1  UNL1        0.0174
     27 C         139.3022  143.1470  163.0227 C.3     1  UNL1        0.0029
     28 C         138.1975  143.1050  162.0088 C.3     1  UNL1        0.0174
     29 C         138.4268  142.4557  160.6762 C.3     1  UNL1        0.0721
@<TRIPOS>BOND
     1    16    17    1
     2    17    18    1
     3    17    19    1
     4    17     7    1
     5     7     8    2
     6     7     9   am
     7     9    10    1
     8    10    11    1
     9    11    12    1
    10    12     1    1
    11     1     2   ar
    12     2     3   ar
    13     3     4   ar
    14     4    20    1
    15    20    21    1
    16    21    22    1
    17    22    23    1
    18    23    24    1
    19    24    25    1
    20    25    26    1
    21    26    27    1
    22    27    28    1
    23    28    29    1
    24     4     5   ar
    25     5     6   ar
    26    12    13   am
    27    13    14    2
    28    13    15    1
    29    15     9    1
    30     6     1   ar
    31    29    24    1
@<TRIPOS>MOLECULE
*****
 29 31 0 0 0
SMALL
GASTEIGER

@<TRIPOS>ATOM
      1 C         142.5682  139.0569  164.3019 C.ar    1  UNL1        0.0541
      2 C         141.4795  138.2755  163.6279 C.ar    1  UNL1        0.0180
      3 C         141.6873  137.7420  162.2415 C.ar    1  UNL1        0.0382
      4 C         142.9838  137.9900  161.5290 C.ar    1  UNL1        0.1386
      5 C         144.0724  138.7713  162.2029 C.ar    1  UNL1        0.0382
      6 C         143.8646  139.3048  163.5894 C.ar    1  UNL1        0.0180
      7 C         141.7370  141.1907  169.8477 C.2     1  UNL1        0.2251
      8 O         142.3513  140.4876  171.0217 O.2     1  UNL1       -0.2749
      9 N         141.9448  140.6572  168.4612 N.am    1  UNL1       -0.2695
     10 C         141.3305  141.3603  167.2872 C.3     1  UNL1        0.1157
     11 C         141.5383  140.8268  165.9008 C.3     1  UNL1        0.1197
     12 N         142.3604  139.5903  165.6883 N.am    1  UNL1       -0.2555
     13 C         142.9747  138.8873  166.8623 C.2     1  UNL1        0.2497
     14 O         143.7968  137.6507  166.6499 O.2     1  UNL1       -0.2727
     15 C         142.7669  139.4207  168.2488 C.3     1  UNL1        0.1797
     16 C         139.6656  141.5971  170.0572 C.3     1  UNL1        0.0091
     17 C         140.9150  142.4272  170.0602 C.3     1  UNL1        0.0691
     18 C         142.1643  143.2573  170.0631 C.3     1  UNL1        0.0091
     19 C         140.0929  143.6638  170.2726 C.3     1  UNL1        0.0091
     20 O         143.1915  137.4565  160.1425 O.3     1  UNL1       -0.4754
     21 C         142.6992  138.2341  158.9581 C.3     1  UNL1        0.2068
     22 C         143.3086  139.5645  158.6284 C.3     1  UNL1        0.0646
     23 C         142.5696  140.8290  158.9525 C.3     1  UNL1        0.0759
     24 N         142.8290  141.5381  160.2486 N.3     1  UNL1       -0.2726
     25 C         141.7450  141.6344  161.2808 C.3     1  UNL1        0.0721
     26 C         142.0044  142.3435  162.5769 C.3     1  UNL1        0.0174
     27 C         143.3479  142.9563  162.8408 C.3     1  UNL1        0.0029
     28 C         144.4320  142.8599  161.8085 C.3     1  UNL1        0.0174
     29 C         144.1725  142.1508  160.5124 C.3     1  UNL1        0.0721
@<TRIPOS>BOND
     1    16    17    1
     2    17    18    1
     3    17    19    1
     4    17     7    1
     5     7     8    2
     6     7     9   am
     7     9    10    1
     8    10    11    1
     9    11    12    1
    10    12     1    1
    11     1     2   ar
    12     2     3   ar
    13     3     4   ar
    14     4    20    1
    15    20    21    1
    16    21    22    1
    17    22    23    1
    18    23    24    1
    19    24    25    1
    20    25    26    1
    21    26    27    1
    22    27    28    1
    23    28    29    1
    24     4     5   ar
    25     5     6   ar
    26    12    13   am
    27    13    14    2
    28    13    15    1
    29    15     9    1
    30     6     1   ar
    31    29    24    1
@<TRIPOS>MOLECULE
*****
 29 31 0 0 0
SMALL
GASTEIGER

@<TRIPOS>ATOM
      1 C         139.5443  139.3280  159.7199 C.ar    1  UNL1        0.0541
      2 C         138.8540  138.5743  160.8178 C.ar    1  UNL1        0.0180
      3 C         138.0075  139.3090  161.8146 C.ar    1  UNL1        0.0382
      4 C         137.8513  140.7974  161.7135 C.ar    1  UNL1        0.1386
      5 C         138.5416  141.5510  160.6157 C.ar    1  UNL1        0.0382
      6 C         139.3881  140.8164  159.6189 C.ar    1  UNL1        0.0180
      7 C         142.9303  136.3892  155.7327 C.2     1  UNL1        0.2251
      8 O         144.4183  136.3287  155.9123 O.2     1  UNL1       -0.2749
      9 N         142.0838  137.1239  156.7295 N.am    1  UNL1       -0.2695
     10 C         140.5959  137.1844  156.5499 C.3     1  UNL1        0.1157
     11 C         139.7494  137.9191  157.5467 C.3     1  UNL1        0.1197
     12 N         140.3908  138.5933  158.7231 N.am    1  UNL1       -0.2555
     13 C         141.8788  138.5328  158.9027 C.2     1  UNL1        0.2497
     14 O         142.5203  139.2070  160.0791 O.2     1  UNL1       -0.2727
     15 C         142.7253  137.7981  157.9059 C.3     1  UNL1        0.1797
     16 C         142.3937  136.9878  153.7697 C.3     1  UNL1        0.0091
     17 C         142.2889  135.7150  154.5563 C.3     1  UNL1        0.0691
     18 C         142.1841  134.4421  155.3429 C.3     1  UNL1        0.0091
     19 C         141.6474  135.0407  153.3799 C.3     1  UNL1        0.0091
     20 O         137.0047  141.5321  162.7104 O.3     1  UNL1       -0.4754
     21 C         137.5124  142.7961  163.3384 C.3     1  UNL1        0.2068
     22 C         138.1092  142.7629  164.7142 C.3     1  UNL1        0.0646
     23 C         139.4244  142.0793  164.9449 C.3     1  UNL1        0.0759
     24 N         139.5057  140.5817  164.9200 N.3     1  UNL1       -0.2726
     25 C         138.4089  139.7608  165.5307 C.3     1  UNL1        0.0721
     26 C         138.4903  138.2632  165.5059 C.3     1  UNL1        0.0174
     27 C         139.6685  137.5866  164.8704 C.3     1  UNL1        0.0029
     28 C         140.7654  138.4075  164.2597 C.3     1  UNL1        0.0174
     29 C         140.6840  139.9051  164.2845 C.3     1  UNL1        0.0721
@<TRIPOS>BOND
     1    16    17    1
     2    17    18    1
     3    17    19    1
     4    17     7    1
     5     7     8    2
     6     7     9   am
     7     9    10    1
     8    10    11    1
     9    11    12    1
    10    12     1    1
    11     1     2   ar
    12     2     3   ar
    13     3     4   ar
    14     4    20    1
    15    20    21    1
    16    21    22    1
    17    22    23    1
    18    23    24    1
    19    24    25    1
    20    25    26    1
    21    26    27    1
    22    27    28    1
    23    28    29    1
    24     4     5   ar
    25     5     6   ar
    26    12    13   am
    27    13    14    2
    28    13    15    1
    29    15     9    1
    30     6     1   ar
    31    29    24    1
@<TRIPOS>MOLECULE
*****
 29 31 0 0 0
SMALL
GASTEIGER

@<TRIPOS>ATOM
      1 C         139.4005  141.9662  163.8265 C.ar    1  UNL1        0.0541
      2 C         140.4221  141.7049  162.7598 C.ar    1  UNL1        0.0180
      3 C         140.1059  142.0141  161.3265 C.ar    1  UNL1        0.0382
      4 C         138.7680  142.5846  160.9599 C.ar    1  UNL1        0.1386
      5 C         137.7464  142.8460  162.0266 C.ar    1  UNL1        0.0382
      6 C         138.0626  142.5368  163.4599 C.ar    1  UNL1        0.0180
      7 C         140.6655  140.7294  169.5597 C.2     1  UNL1        0.2251
      8 O         140.0568  139.5278  170.2197 O.2     1  UNL1       -0.2749
      9 N         140.3493  141.0386  168.1264 N.am    1  UNL1       -0.2695
     10 C         140.9580  142.2402  167.4664 C.3     1  UNL1        0.1157
     11 C         140.6417  142.5494  166.0331 C.3     1  UNL1        0.1197
     12 N         139.7168  141.6570  165.2598 N.am    1  UNL1       -0.2555
     13 C         139.1081  140.4554  165.9198 C.2     1  UNL1        0.2497
     14 O         138.1830  139.5630  165.1465 O.2     1  UNL1       -0.2727
     15 C         139.4243  140.1462  167.3531 C.3     1  UNL1        0.1797
     16 C         142.7514  140.7549  169.9448 C.3     1  UNL1        0.0091
     17 C         141.5905  141.6218  170.3330 C.3     1  UNL1        0.0691
     18 C         140.4296  142.4887  170.7212 C.3     1  UNL1        0.0091
     19 C         142.5155  142.5142  171.1064 C.3     1  UNL1        0.0091
     20 O         138.4517  142.8938  159.5266 O.3     1  UNL1       -0.4754
     21 C         138.5082  141.8067  158.4947 C.3     1  UNL1        0.2068
     22 C         138.1522  140.3983  158.8687 C.3     1  UNL1        0.0646
     23 C         139.1970  139.3230  158.8221 C.3     1  UNL1        0.0759
     24 N         139.7469  138.7558  160.0972 N.3     1  UNL1       -0.2726
     25 C         138.8195  138.4002  161.2212 C.3     1  UNL1        0.0721
     26 C         139.3694  137.8329  162.4963 C.3     1  UNL1        0.0174
     27 C         140.8467  137.6213  162.6473 C.3     1  UNL1        0.0029
     28 C         141.7741  137.9769  161.5233 C.3     1  UNL1        0.0174
     29 C         141.2242  138.5441  160.2482 C.3     1  UNL1        0.0721
@<TRIPOS>BOND
     1    16    17    1
     2    17    18    1
     3    17    19    1
     4    17     7    1
     5     7     8    2
     6     7     9   am
     7     9    10    1
     8    10    11    1
     9    11    12    1
    10    12     1    1
    11     1     2   ar
    12     2     3   ar
    13     3     4   ar
    14     4    20    1
    15    20    21    1
    16    21    22    1
    17    22    23    1
    18    23    24    1
    19    24    25    1
    20    25    26    1
    21    26    27    1
    22    27    28    1
    23    28    29    1
    24     4     5   ar
    25     5     6   ar
    26    12    13   am
    27    13    14    2
    28    13    15    1
    29    15     9    1
    30     6     1   ar
    31    29    24    1
@<TRIPOS>MOLECULE
*****
 29 31 0 0 0
SMALL
GASTEIGER

@<TRIPOS>ATOM
      1 C         142.3452  139.8682  163.1979 C.ar    1  UNL1        0.0541
      2 C         143.7368  139.3620  162.9585 C.ar    1  UNL1        0.0180
      3 C         144.2619  139.2452  161.5583 C.ar    1  UNL1        0.0382
      4 C         143.3955  139.6345  160.3974 C.ar    1  UNL1        0.1386
      5 C         142.0039  140.1407  160.6368 C.ar    1  UNL1        0.0382
      6 C         141.4788  140.2576  162.0370 C.ar    1  UNL1        0.0180
      7 C         140.2448  140.3356  168.7987 C.2     1  UNL1        0.2251
      8 O         138.9591  139.6616  169.1763 O.2     1  UNL1       -0.2749
      9 N         140.7699  140.2187  167.3985 N.am    1  UNL1       -0.2695
     10 C         142.0557  140.8928  167.0210 C.3     1  UNL1        0.1157
     11 C         142.5808  140.7759  165.6208 C.3     1  UNL1        0.1197
     12 N         141.8201  139.9851  164.5981 N.am    1  UNL1       -0.2555
     13 C         140.5344  139.3110  164.9756 C.2     1  UNL1        0.2497
     14 O         139.7737  138.5201  163.9529 O.2     1  UNL1       -0.2727
     15 C         140.0093  139.4279  166.3758 C.3     1  UNL1        0.1797
     16 C         141.8069  139.9069  170.1684 C.3     1  UNL1        0.0091
     17 C         141.0054  141.1264  169.8214 C.3     1  UNL1        0.0691
     18 C         140.2040  142.3459  169.4745 C.3     1  UNL1        0.0091
     19 C         141.7661  141.9174  170.8442 C.3     1  UNL1        0.0091
     20 O         143.9206  139.5177  158.9972 O.3     1  UNL1       -0.4754
     21 C         144.0677  140.7443  158.1466 C.3     1  UNL1        0.2068
     22 C         144.5495  142.0270  158.7571 C.3     1  UNL1        0.0646
     23 C         143.5604  143.0564  159.2177 C.3     1  UNL1        0.0759
     24 N         143.4269  143.3671  160.6791 N.3     1  UNL1       -0.2726
     25 C         142.2262  144.1132  161.1806 C.3     1  UNL1        0.0721
     26 C         142.0928  144.4239  162.6420 C.3     1  UNL1        0.0174
     27 C         143.1601  143.9886  163.6018 C.3     1  UNL1        0.0029
     28 C         144.3609  143.2426  163.1003 C.3     1  UNL1        0.0174
     29 C         144.4944  142.9318  161.6389 C.3     1  UNL1        0.0721
@<TRIPOS>BOND
     1    16    17    1
     2    17    18    1
     3    17    19    1
     4    17     7    1
     5     7     8    2
     6     7     9   am
     7     9    10    1
     8    10    11    1
     9    11    12    1
    10    12     1    1
    11     1     2   ar
    12     2     3   ar
    13     3     4   ar
    14     4    20    1
    15    20    21    1
    16    21    22    1
    17    22    23    1
    18    23    24    1
    19    24    25    1
    20    25    26    1
    21    26    27    1
    22    27    28    1
    23    28    29    1
    24     4     5   ar
    25     5     6   ar
    26    12    13   am
    27    13    14    2
    28    13    15    1
    29    15     9    1
    30     6     1   ar
    31    29    24    1
