@<TRIPOS>MOLECULE
*****
 35 38 0 0 0
SMALL
GASTEIGER

@<TRIPOS>ATOM
      1 C         141.8309  138.9580  161.5057 C.ar    1  UNL1        0.2204
      2 N         142.9537  138.3989  160.6830 N.ar    1  UNL1       -0.2089
      3 C         142.7214  138.0336  159.2469 C.ar    1  UNL1        0.1402
      4 C         141.3663  138.2273  158.6334 C.ar    1  UNL1        0.1773
      5 C         140.2436  138.7864  159.4561 C.ar    1  UNL1        0.1402
      6 N         140.4759  139.1518  160.8923 N.ar    1  UNL1       -0.2089
      7 C         141.1126  137.0214  163.6814 C.3     1  UNL1        0.0233
      8 C         141.7041  138.3551  164.0297 C.3     1  UNL1        0.0955
      9 C         141.9364  138.7205  165.4658 C.3     1  UNL1        0.1149
     10 N         142.5279  140.0543  165.8141 N.pl3   1  UNL1       -0.2590
     11 C         142.8870  141.0226  164.7263 C.3     1  UNL1        0.1166
     12 C         142.6547  140.6572  163.2902 C.3     1  UNL1        0.1151
     13 N         142.0632  139.3234  162.9419 N.pl3   1  UNL1       -0.2764
     14 C         142.7602  140.4196  167.2503 C.ar    1  UNL1        0.3120
     15 N         142.8489  139.4612  168.4007 N.ar    1  UNL1       -0.0922
     16 N         143.0881  140.2568  169.6496 N.ar    1  UNL1       -0.1018
     17 C         143.1473  141.7071  169.2710 C.ar    1  UNL1        0.3233
     18 O         142.9447  141.8077  167.7882 O.2     1  UNL1       -0.4012
     19 C         143.3701  142.8551  170.2104 C.3     1  UNL1        0.4711
     20 F         143.5929  144.0032  171.1497 F       1  UNL1       -0.1619
     21 F         144.8449  142.5820  170.1944 F       1  UNL1       -0.1619
     22 F         141.8953  143.1282  170.2263 F       1  UNL1       -0.1619
     23 O         141.1341  137.8619  157.1973 O.3     1  UNL1       -0.4674
     24 C         142.2238  137.2017  156.4056 C.3     1  UNL1        0.2344
     25 C         142.3075  135.7052  156.3478 C.ar    1  UNL1        0.0486
     26 C         143.2811  134.9741  157.2238 C.ar    1  UNL1        0.0014
     27 C         143.3648  133.4775  157.1660 C.ar    1  UNL1        0.0007
     28 C         142.4749  132.7121  156.2321 C.ar    1  UNL1        0.0388
     29 C         141.5012  133.4432  155.3561 C.ar    1  UNL1        0.0302
     30 C         141.4175  134.9397  155.4139 C.ar    1  UNL1        0.1395
     31 F         140.4438  135.6708  154.5379 F       1  UNL1       -0.2044
     32 C         142.5586  131.2156  156.1743 C.3     1  UNL1        0.2827
     33 S         143.8201  130.5183  156.5896 S.O     1  UNL1        0.0405
     34 C         143.8537  129.7229  157.8610 C.3     1  UNL1        0.3201
     35 O         145.0480  130.6165  155.7337 O.co2   1  UNL1       -0.6809
@<TRIPOS>UNITY_ATOM_ATTR
33 1
charge 1
35 1
charge -1
@<TRIPOS>BOND
     1     8     7    1
     2     8     9    1
     3     9    10    1
     4    10    14    1
     5    14    15   ar
     6    15    16   ar
     7    16    17   ar
     8    17    19    1
     9    19    20    1
    10    19    21    1
    11    19    22    1
    12    17    18   ar
    13    10    11    1
    14    11    12    1
    15    12    13    1
    16    13     1    1
    17     1     2   ar
    18     2     3   ar
    19     3     4   ar
    20     4    23    1
    21    23    24    1
    22    24    25    1
    23    25    26   ar
    24    26    27   ar
    25    27    28   ar
    26    28    32    1
    27    32    33    1
    28    33    34    1
    29    33    35    2
    30    28    29   ar
    31    29    30   ar
    32    30    31    1
    33     4     5   ar
    34     5     6   ar
    35    13     8    1
    36     6     1   ar
    37    18    14   ar
    38    30    25   ar
@<TRIPOS>MOLECULE
*****
 35 38 0 0 0
SMALL
GASTEIGER

@<TRIPOS>ATOM
      1 C         139.0590  142.1922  160.6664 C.ar    1  UNL1        0.2204
      2 N         137.8112  142.3242  161.4884 N.ar    1  UNL1       -0.2089
      3 C         137.5688  141.3925  162.6387 C.ar    1  UNL1        0.1402
      4 C         138.5742  140.3288  162.9671 C.ar    1  UNL1        0.1773
      5 C         139.8220  140.1968  162.1451 C.ar    1  UNL1        0.1402
      6 N         140.0643  141.1285  160.9948 N.ar    1  UNL1       -0.2089
      7 C         138.1209  141.4533  157.9143 C.3     1  UNL1        0.0233
      8 C         138.8323  142.7545  158.1401 C.3     1  UNL1        0.0955
      9 C         139.0747  143.6861  156.9898 C.3     1  UNL1        0.1149
     10 N         139.7861  144.9873  157.2156 N.pl3   1  UNL1       -0.2590
     11 C         140.2552  145.3567  158.5916 C.3     1  UNL1        0.1166
     12 C         140.0128  144.4250  159.7418 C.3     1  UNL1        0.1151
     13 N         139.3014  143.1239  159.5161 N.pl3   1  UNL1       -0.2764
     14 C         140.0285  145.9190  156.0652 C.ar    1  UNL1        0.3120
     15 N         140.8874  145.6371  154.8682 N.ar    1  UNL1       -0.0922
     16 N         140.8442  146.8401  153.9731 N.ar    1  UNL1       -0.1018
     17 C         139.9587  147.8654  154.6170 C.ar    1  UNL1        0.3233
     18 O         139.4546  147.2961  155.9100 O.2     1  UNL1       -0.4012
     19 C         139.6343  149.2218  154.0649 C.3     1  UNL1        0.4711
     20 F         139.3099  150.5783  153.5128 F       1  UNL1       -0.1619
     21 F         139.0878  149.6344  155.3995 F       1  UNL1       -0.1619
     22 F         140.1808  148.8093  152.7303 F       1  UNL1       -0.1619
     23 O         138.3318  139.3972  164.1174 O.3     1  UNL1       -0.4674
     24 C         139.4911  138.7513  164.8166 C.3     1  UNL1        0.2344
     25 C         139.9799  139.3017  166.1235 C.ar    1  UNL1        0.0486
     26 C         141.4267  139.6600  166.2922 C.ar    1  UNL1        0.0014
     27 C         141.9155  140.2105  167.5992 C.ar    1  UNL1        0.0007
     28 C         140.9576  140.4026  168.7374 C.ar    1  UNL1        0.0388
     29 C         139.5108  140.0443  168.5686 C.ar    1  UNL1        0.0302
     30 C         139.0220  139.4939  167.2617 C.ar    1  UNL1        0.1395
     31 F         137.5752  139.1356  167.0930 F       1  UNL1       -0.2044
     32 C         141.4464  140.9531  170.0442 C.3     1  UNL1        0.2827
     33 S         140.8127  142.1827  170.6242 S.O     1  UNL1        0.0405
     34 C         140.5905  143.3898  169.7618 C.3     1  UNL1        0.3201
     35 O         140.4012  142.2053  172.0665 O.co2   1  UNL1       -0.6809
@<TRIPOS>UNITY_ATOM_ATTR
33 1
charge 1
35 1
charge -1
@<TRIPOS>BOND
     1     8     7    1
     2     8     9    1
     3     9    10    1
     4    10    14    1
     5    14    15   ar
     6    15    16   ar
     7    16    17   ar
     8    17    19    1
     9    19    20    1
    10    19    21    1
    11    19    22    1
    12    17    18   ar
    13    10    11    1
    14    11    12    1
    15    12    13    1
    16    13     1    1
    17     1     2   ar
    18     2     3   ar
    19     3     4   ar
    20     4    23    1
    21    23    24    1
    22    24    25    1
    23    25    26   ar
    24    26    27   ar
    25    27    28   ar
    26    28    32    1
    27    32    33    1
    28    33    34    1
    29    33    35    2
    30    28    29   ar
    31    29    30   ar
    32    30    31    1
    33     4     5   ar
    34     5     6   ar
    35    13     8    1
    36     6     1   ar
    37    18    14   ar
    38    30    25   ar
@<TRIPOS>MOLECULE
*****
 35 38 0 0 0
SMALL
GASTEIGER

@<TRIPOS>ATOM
      1 C         140.9525  142.1039  160.9558 C.ar    1  UNL1        0.2204
      2 N         142.3664  141.6335  161.1286 N.ar    1  UNL1       -0.2089
      3 C         142.6892  140.5893  162.1559 C.ar    1  UNL1        0.1402
      4 C         141.5982  140.0154  163.0105 C.ar    1  UNL1        0.1773
      5 C         140.1843  140.4857  162.8378 C.ar    1  UNL1        0.1402
      6 N         139.8615  141.5300  161.8104 N.ar    1  UNL1       -0.2089
      7 C         141.0595  145.0114  161.6873 C.3     1  UNL1        0.0233
      8 C         140.6832  144.6018  160.2942 C.3     1  UNL1        0.0955
      9 C         140.3604  145.6460  159.2669 C.3     1  UNL1        0.1149
     10 N         139.9841  145.2365  157.8738 N.pl3   1  UNL1       -0.2590
     11 C         139.9307  143.7827  157.5080 C.3     1  UNL1        0.1166
     12 C         140.2534  142.7386  158.5354 C.3     1  UNL1        0.1151
     13 N         140.6297  143.1481  159.9285 N.pl3   1  UNL1       -0.2764
     14 C         139.6613  146.2807  156.8464 C.ar    1  UNL1        0.3120
     15 N         139.7518  146.1116  155.3588 N.ar    1  UNL1       -0.0922
     16 N         139.3378  147.4038  154.7193 N.ar    1  UNL1       -0.1018
     17 C         138.9914  148.3715  155.8119 C.ar    1  UNL1        0.3233
     18 O         139.1914  147.6774  157.1265 O.2     1  UNL1       -0.4012
     19 C         138.5266  149.7851  155.6229 C.3     1  UNL1        0.4711
     20 F         138.0619  151.1987  155.4340 F       1  UNL1       -0.1619
     21 F         139.1933  149.8248  154.2798 F       1  UNL1       -0.1619
     22 F         137.8600  149.7455  156.9660 F       1  UNL1       -0.1619
     23 O         141.9210  138.9712  164.0378 O.3     1  UNL1       -0.4674
     24 C         143.1136  139.1417  164.9315 C.3     1  UNL1        0.2344
     25 C         142.9898  139.9218  166.2066 C.ar    1  UNL1        0.0486
     26 C         142.7340  139.2079  167.5008 C.ar    1  UNL1        0.0014
     27 C         142.6102  139.9880  168.7760 C.ar    1  UNL1        0.0007
     28 C         142.7422  141.4820  168.7570 C.ar    1  UNL1        0.0388
     29 C         142.9980  142.1960  167.4629 C.ar    1  UNL1        0.0302
     30 C         143.1218  141.4159  166.1877 C.ar    1  UNL1        0.1395
     31 F         143.3776  142.1299  164.8936 F       1  UNL1       -0.2044
     32 C         142.6184  142.2621  170.0322 C.3     1  UNL1        0.2827
     33 S         141.2638  142.6563  170.5418 S.O     1  UNL1        0.0405
     34 C         140.4252  143.6296  169.7675 C.3     1  UNL1        0.3201
     35 O         140.7478  142.0771  171.8256 O.co2   1  UNL1       -0.6809
@<TRIPOS>UNITY_ATOM_ATTR
33 1
charge 1
35 1
charge -1
@<TRIPOS>BOND
     1     8     7    1
     2     8     9    1
     3     9    10    1
     4    10    14    1
     5    14    15   ar
     6    15    16   ar
     7    16    17   ar
     8    17    19    1
     9    19    20    1
    10    19    21    1
    11    19    22    1
    12    17    18   ar
    13    10    11    1
    14    11    12    1
    15    12    13    1
    16    13     1    1
    17     1     2   ar
    18     2     3   ar
    19     3     4   ar
    20     4    23    1
    21    23    24    1
    22    24    25    1
    23    25    26   ar
    24    26    27   ar
    25    27    28   ar
    26    28    32    1
    27    32    33    1
    28    33    34    1
    29    33    35    2
    30    28    29   ar
    31    29    30   ar
    32    30    31    1
    33     4     5   ar
    34     5     6   ar
    35    13     8    1
    36     6     1   ar
    37    18    14   ar
    38    30    25   ar
@<TRIPOS>MOLECULE
*****
 35 38 0 0 0
SMALL
GASTEIGER

@<TRIPOS>ATOM
      1 C         141.6449  143.6870  159.6873 C.ar    1  UNL1        0.2204
      2 N         141.7308  144.9686  160.4620 N.ar    1  UNL1       -0.2089
      3 C         140.6245  145.3542  161.3988 C.ar    1  UNL1        0.1402
      4 C         139.4324  144.4582  161.5608 C.ar    1  UNL1        0.1773
      5 C         139.3466  143.1767  160.7860 C.ar    1  UNL1        0.1402
      6 N         140.4529  142.7911  159.8492 N.ar    1  UNL1       -0.2089
      7 C         144.2113  142.5761  160.7733 C.3     1  UNL1        0.0233
      8 C         144.0344  142.7460  159.2935 C.3     1  UNL1        0.0955
      9 C         145.1406  142.3605  158.3568 C.3     1  UNL1        0.1149
     10 N         144.9637  142.5303  156.8769 N.pl3   1  UNL1       -0.2590
     11 C         143.6805  143.0858  156.3339 C.3     1  UNL1        0.1166
     12 C         142.5743  143.4713  157.2707 C.3     1  UNL1        0.1151
     13 N         142.7512  143.3014  158.7505 N.pl3   1  UNL1       -0.2764
     14 C         146.0700  142.1448  155.9402 C.ar    1  UNL1        0.3120
     15 N         145.9017  141.6337  154.5400 N.ar    1  UNL1       -0.0922
     16 N         147.2665  141.3756  153.9736 N.ar    1  UNL1       -0.1018
     17 C         148.2783  141.7273  155.0238 C.ar    1  UNL1        0.3233
     18 O         147.5388  142.2026  156.2391 O.2     1  UNL1       -0.4012
     19 C         149.7680  141.6220  154.8832 C.3     1  UNL1        0.4711
     20 F         151.2576  141.5168  154.7426 F       1  UNL1       -0.1619
     21 F         149.6034  141.2042  153.4520 F       1  UNL1       -0.1619
     22 F         149.9325  142.0398  156.3144 F       1  UNL1       -0.1619
     23 O         138.3262  144.8438  162.4976 O.3     1  UNL1       -0.4674
     24 C         137.6275  143.7916  163.3066 C.3     1  UNL1        0.2344
     25 C         138.3867  143.0127  164.3396 C.ar    1  UNL1        0.0486
     26 C         139.3632  143.7118  165.2382 C.ar    1  UNL1        0.0014
     27 C         140.1223  142.9329  166.2712 C.ar    1  UNL1        0.0007
     28 C         139.9049  141.4548  166.4056 C.ar    1  UNL1        0.0388
     29 C         138.9283  140.7557  165.5069 C.ar    1  UNL1        0.0302
     30 C         138.1692  141.5346  164.4740 C.ar    1  UNL1        0.1395
     31 F         137.1927  140.8354  163.5753 F       1  UNL1       -0.2044
     32 C         140.6640  140.6760  167.4385 C.3     1  UNL1        0.2827
     33 S         140.0497  140.4142  168.7817 S.O     1  UNL1        0.0405
     34 C         140.7098  140.9373  170.0231 C.3     1  UNL1        0.3201
     35 O         138.7754  139.6295  168.8836 O.co2   1  UNL1       -0.6809
@<TRIPOS>UNITY_ATOM_ATTR
33 1
charge 1
35 1
charge -1
@<TRIPOS>BOND
     1     8     7    1
     2     8     9    1
     3     9    10    1
     4    10    14    1
     5    14    15   ar
     6    15    16   ar
     7    16    17   ar
     8    17    19    1
     9    19    20    1
    10    19    21    1
    11    19    22    1
    12    17    18   ar
    13    10    11    1
    14    11    12    1
    15    12    13    1
    16    13     1    1
    17     1     2   ar
    18     2     3   ar
    19     3     4   ar
    20     4    23    1
    21    23    24    1
    22    24    25    1
    23    25    26   ar
    24    26    27   ar
    25    27    28   ar
    26    28    32    1
    27    32    33    1
    28    33    34    1
    29    33    35    2
    30    28    29   ar
    31    29    30   ar
    32    30    31    1
    33     4     5   ar
    34     5     6   ar
    35    13     8    1
    36     6     1   ar
    37    18    14   ar
    38    30    25   ar
@<TRIPOS>MOLECULE
*****
 35 38 0 0 0
SMALL
GASTEIGER

@<TRIPOS>ATOM
      1 C         139.7540  140.7289  160.1729 C.ar    1  UNL1        0.2204
      2 N         138.7352  140.3106  161.1913 N.ar    1  UNL1       -0.2089
      3 C         137.9720  141.3490  161.9589 C.ar    1  UNL1        0.1402
      4 C         138.2276  142.8057  161.7082 C.ar    1  UNL1        0.1773
      5 C         139.2464  143.2239  160.6898 C.ar    1  UNL1        0.1402
      6 N         140.0096  142.1855  159.9221 N.ar    1  UNL1       -0.2089
      7 C         142.4862  139.8936  161.0879 C.3     1  UNL1        0.0233
      8 C         141.8833  139.2729  159.8627 C.3     1  UNL1        0.0955
      9 C         142.6464  138.2345  159.0950 C.3     1  UNL1        0.1149
     10 N         142.0434  137.6137  157.8698 N.pl3   1  UNL1       -0.2590
     11 C         140.6774  138.0313  157.4123 C.3     1  UNL1        0.1166
     12 C         139.9142  139.0697  158.1800 C.3     1  UNL1        0.1151
     13 N         140.5172  139.6905  159.4052 N.pl3   1  UNL1       -0.2764
     14 C         142.8066  136.5753  157.1022 C.ar    1  UNL1        0.3120
     15 N         143.4887  136.7790  155.7818 N.ar    1  UNL1       -0.0922
     16 N         144.1253  135.4805  155.3837 N.ar    1  UNL1       -0.1018
     17 C         143.8368  134.4741  156.4581 C.ar    1  UNL1        0.3233
     18 O         143.0218  135.1508  157.5201 O.2     1  UNL1       -0.4012
     19 C         144.2846  133.0426  156.4685 C.3     1  UNL1        0.4711
     20 F         144.7323  131.6111  156.4790 F       1  UNL1       -0.1619
     21 F         143.7061  132.8516  155.0978 F       1  UNL1       -0.1619
     22 F         144.8630  133.2335  157.8392 F       1  UNL1       -0.1619
     23 O         137.4644  143.8440  162.4759 O.3     1  UNL1       -0.4674
     24 C         138.0065  144.3668  163.7731 C.3     1  UNL1        0.2344
     25 C         139.3295  143.8787  164.2842 C.ar    1  UNL1        0.0486
     26 C         139.3870  142.7025  165.2133 C.ar    1  UNL1        0.0014
     27 C         140.7101  142.2144  165.7244 C.ar    1  UNL1        0.0007
     28 C         141.9757  142.9025  165.3064 C.ar    1  UNL1        0.0388
     29 C         141.9182  144.0788  164.3773 C.ar    1  UNL1        0.0302
     30 C         140.5952  144.5668  163.8662 C.ar    1  UNL1        0.1395
     31 F         140.5377  145.7431  162.9371 F       1  UNL1       -0.2044
     32 C         143.2987  142.4144  165.8175 C.3     1  UNL1        0.2827
     33 S         144.5717  143.0045  165.2869 S.O     1  UNL1        0.0405
     34 C         145.2267  142.4091  164.0758 C.3     1  UNL1        0.3201
     35 O         145.1896  144.1898  165.9674 O.co2   1  UNL1       -0.6809
@<TRIPOS>UNITY_ATOM_ATTR
33 1
charge 1
35 1
charge -1
@<TRIPOS>BOND
     1     8     7    1
     2     8     9    1
     3     9    10    1
     4    10    14    1
     5    14    15   ar
     6    15    16   ar
     7    16    17   ar
     8    17    19    1
     9    19    20    1
    10    19    21    1
    11    19    22    1
    12    17    18   ar
    13    10    11    1
    14    11    12    1
    15    12    13    1
    16    13     1    1
    17     1     2   ar
    18     2     3   ar
    19     3     4   ar
    20     4    23    1
    21    23    24    1
    22    24    25    1
    23    25    26   ar
    24    26    27   ar
    25    27    28   ar
    26    28    32    1
    27    32    33    1
    28    33    34    1
    29    33    35    2
    30    28    29   ar
    31    29    30   ar
    32    30    31    1
    33     4     5   ar
    34     5     6   ar
    35    13     8    1
    36     6     1   ar
    37    18    14   ar
    38    30    25   ar
@<TRIPOS>MOLECULE
*****
 35 38 0 0 0
SMALL
GASTEIGER

@<TRIPOS>ATOM
      1 C         139.6271  141.3026  159.6526 C.ar    1  UNL1        0.2204
      2 N         138.4810  141.0321  160.5816 N.ar    1  UNL1       -0.2089
      3 C         138.4694  139.7850  161.4151 C.ar    1  UNL1        0.1402
      4 C         139.6040  138.8084  161.3195 C.ar    1  UNL1        0.1773
      5 C         140.7501  139.0790  160.3904 C.ar    1  UNL1        0.1402
      6 N         140.7617  140.3261  159.5570 N.ar    1  UNL1       -0.2089
      7 C         140.7628  143.8440  160.7713 C.3     1  UNL1        0.0233
      8 C         140.2065  143.8204  159.3785 C.3     1  UNL1        0.0955
      9 C         140.2181  145.0675  158.5450 C.3     1  UNL1        0.1149
     10 N         139.6617  145.0439  157.1522 N.pl3   1  UNL1       -0.2590
     11 C         139.0939  143.7732  156.5928 C.3     1  UNL1        0.1166
     12 C         139.0824  142.5262  157.4263 C.3     1  UNL1        0.1151
     13 N         139.6387  142.5498  158.8191 N.pl3   1  UNL1       -0.2764
     14 C         139.6733  146.2910  156.3187 C.ar    1  UNL1        0.3120
     15 N         140.4224  146.4859  155.0338 N.ar    1  UNL1       -0.0922
     16 N         140.1498  147.8775  154.5449 N.ar    1  UNL1       -0.1018
     17 C         139.2323  148.5427  155.5276 C.ar    1  UNL1        0.3233
     18 O         138.9378  147.5622  156.6238 O.2     1  UNL1       -0.4012
     19 C         138.7023  149.9426  155.4309 C.3     1  UNL1        0.4711
     20 F         138.1724  151.3425  155.3343 F       1  UNL1       -0.1619
     21 F         139.4499  150.1369  154.1451 F       1  UNL1       -0.1619
     22 F         137.9548  149.7484  156.7168 F       1  UNL1       -0.1619
     23 O         139.5924  137.5614  162.1529 O.3     1  UNL1       -0.4674
     24 C         140.5513  137.4150  163.2970 C.3     1  UNL1        0.2344
     25 C         140.3589  138.2243  164.5452 C.ar    1  UNL1        0.0486
     26 C         138.9995  138.3260  165.1710 C.ar    1  UNL1        0.0014
     27 C         138.8071  139.1354  166.4192 C.ar    1  UNL1        0.0007
     28 C         139.9741  139.8431  167.0415 C.ar    1  UNL1        0.0388
     29 C         141.3335  139.7414  166.4157 C.ar    1  UNL1        0.0302
     30 C         141.5259  138.9321  165.1675 C.ar    1  UNL1        0.1395
     31 F         142.8853  138.8304  164.5417 F       1  UNL1       -0.2044
     32 C         139.7817  140.6524  168.2897 C.3     1  UNL1        0.2827
     33 S         140.0678  140.0432  169.6302 S.O     1  UNL1        0.0405
     34 C         141.4684  139.6434  169.9887 C.3     1  UNL1        0.3201
     35 O         138.9534  139.8337  170.6121 O.co2   1  UNL1       -0.6809
@<TRIPOS>UNITY_ATOM_ATTR
33 1
charge 1
35 1
charge -1
@<TRIPOS>BOND
     1     8     7    1
     2     8     9    1
     3     9    10    1
     4    10    14    1
     5    14    15   ar
     6    15    16   ar
     7    16    17   ar
     8    17    19    1
     9    19    20    1
    10    19    21    1
    11    19    22    1
    12    17    18   ar
    13    10    11    1
    14    11    12    1
    15    12    13    1
    16    13     1    1
    17     1     2   ar
    18     2     3   ar
    19     3     4   ar
    20     4    23    1
    21    23    24    1
    22    24    25    1
    23    25    26   ar
    24    26    27   ar
    25    27    28   ar
    26    28    32    1
    27    32    33    1
    28    33    34    1
    29    33    35    2
    30    28    29   ar
    31    29    30   ar
    32    30    31    1
    33     4     5   ar
    34     5     6   ar
    35    13     8    1
    36     6     1   ar
    37    18    14   ar
    38    30    25   ar
@<TRIPOS>MOLECULE
*****
 35 38 0 0 0
SMALL
GASTEIGER

@<TRIPOS>ATOM
      1 C         140.6996  138.4962  160.9123 C.ar    1  UNL1        0.2204
      2 N         142.1061  138.1875  160.4924 N.ar    1  UNL1       -0.2089
      3 C         142.4181  137.9296  159.0480 C.ar    1  UNL1        0.1402
      4 C         141.3235  137.9804  158.0236 C.ar    1  UNL1        0.1773
      5 C         139.9169  138.2891  158.4436 C.ar    1  UNL1        0.1402
      6 N         139.6050  138.5470  159.8880 N.ar    1  UNL1       -0.2089
      7 C         140.7513  141.2991  161.9808 C.3     1  UNL1        0.0233
      8 C         140.4135  140.1556  162.8910 C.3     1  UNL1        0.0955
      9 C         140.1016  140.4134  164.3353 C.3     1  UNL1        0.1149
     10 N         139.7638  139.2699  165.2454 N.pl3   1  UNL1       -0.2590
     11 C         139.7379  137.8686  164.7112 C.3     1  UNL1        0.1166
     12 C         140.0499  137.6107  163.2669 C.3     1  UNL1        0.1151
     13 N         140.3876  138.7542  162.3568 N.pl3   1  UNL1       -0.2764
     14 C         139.4519  139.5279  166.6898 C.ar    1  UNL1        0.3120
     15 N         138.3242  138.9204  167.4704 N.ar    1  UNL1       -0.0922
     16 N         138.3883  139.4557  168.8702 N.ar    1  UNL1       -0.1018
     17 C         139.5556  140.3940  168.9547 C.ar    1  UNL1        0.3233
     18 O         140.2129  140.4386  167.6072 O.2     1  UNL1       -0.4012
     19 C         139.9894  141.1542  170.1729 C.3     1  UNL1        0.4711
     20 F         140.4231  141.9143  171.3911 F       1  UNL1       -0.1619
     21 F         139.9289  139.8924  170.9818 F       1  UNL1       -0.1619
     22 F         140.0498  142.4159  169.3640 F       1  UNL1       -0.1619
     23 O         141.6354  137.7224  156.5793 O.3     1  UNL1       -0.4674
     24 C         142.8470  136.9211  156.2052 C.3     1  UNL1        0.2344
     25 C         142.8230  135.4259  156.3231 C.ar    1  UNL1        0.0486
     26 C         143.7457  134.7344  157.2825 C.ar    1  UNL1        0.0014
     27 C         143.7217  133.2391  157.4003 C.ar    1  UNL1        0.0007
     28 C         142.7750  132.4356  156.5589 C.ar    1  UNL1        0.0388
     29 C         141.8523  133.1271  155.5995 C.ar    1  UNL1        0.0302
     30 C         141.8763  134.6223  155.4816 C.ar    1  UNL1        0.1395
     31 F         140.9536  135.3139  154.5222 F       1  UNL1       -0.2044
     32 C         142.7511  130.9404  156.6768 C.3     1  UNL1        0.2827
     33 S         144.0213  130.1561  156.5308 S.O     1  UNL1        0.0405
     34 C         144.2713  128.9637  157.4059 C.3     1  UNL1        0.3201
     35 O         145.0415  130.5641  155.5097 O.co2   1  UNL1       -0.6809
@<TRIPOS>UNITY_ATOM_ATTR
33 1
charge 1
35 1
charge -1
@<TRIPOS>BOND
     1     8     7    1
     2     8     9    1
     3     9    10    1
     4    10    14    1
     5    14    15   ar
     6    15    16   ar
     7    16    17   ar
     8    17    19    1
     9    19    20    1
    10    19    21    1
    11    19    22    1
    12    17    18   ar
    13    10    11    1
    14    11    12    1
    15    12    13    1
    16    13     1    1
    17     1     2   ar
    18     2     3   ar
    19     3     4   ar
    20     4    23    1
    21    23    24    1
    22    24    25    1
    23    25    26   ar
    24    26    27   ar
    25    27    28   ar
    26    28    32    1
    27    32    33    1
    28    33    34    1
    29    33    35    2
    30    28    29   ar
    31    29    30   ar
    32    30    31    1
    33     4     5   ar
    34     5     6   ar
    35    13     8    1
    36     6     1   ar
    37    18    14   ar
    38    30    25   ar
@<TRIPOS>MOLECULE
*****
 35 38 0 0 0
SMALL
GASTEIGER

@<TRIPOS>ATOM
      1 C         141.1218  141.5491  159.1948 C.ar    1  UNL1        0.2204
      2 N         142.0903  142.6787  159.3847 N.ar    1  UNL1       -0.2089
      3 C         141.6055  144.0053  159.8897 C.ar    1  UNL1        0.1402
      4 C         140.1523  144.2024  160.2048 C.ar    1  UNL1        0.1773
      5 C         139.1838  143.0728  160.0149 C.ar    1  UNL1        0.1402
      6 N         139.6686  141.7462  159.5098 N.ar    1  UNL1       -0.2089
      7 C         142.0940  139.4720  161.1288 C.3     1  UNL1        0.0233
      8 C         142.0927  139.1840  159.6567 C.3     1  UNL1        0.0955
      9 C         142.5774  137.8574  159.1517 C.3     1  UNL1        0.1149
     10 N         142.5761  137.5693  157.6796 N.pl3   1  UNL1       -0.2590
     11 C         142.0901  138.6078  156.7126 C.3     1  UNL1        0.1166
     12 C         141.6053  139.9344  157.2176 C.3     1  UNL1        0.1151
     13 N         141.6066  140.2225  158.6897 N.pl3   1  UNL1       -0.2764
     14 C         143.0609  136.2426  157.1746 C.ar    1  UNL1        0.3120
     15 N         143.3985  135.9109  155.7512 N.ar    1  UNL1       -0.0922
     16 N         143.8395  134.4781  155.7012 N.ar    1  UNL1       -0.1018
     17 C         143.7744  133.9242  157.0937 C.ar    1  UNL1        0.3233
     18 O         143.2932  135.0148  158.0043 O.2     1  UNL1       -0.4012
     19 C         144.1284  132.5254  157.5037 C.3     1  UNL1        0.4711
     20 F         144.4823  131.1266  157.9136 F       1  UNL1       -0.1619
     21 F         145.2386  133.0575  158.3605 F       1  UNL1       -0.1619
     22 F         143.0181  131.9934  156.6468 F       1  UNL1       -0.1619
     23 O         139.6675  145.5290  160.7098 O.3     1  UNL1       -0.4674
     24 C         139.8817  145.9090  162.1450 C.3     1  UNL1        0.2344
     25 C         139.8774  144.8520  163.2093 C.ar    1  UNL1        0.0486
     26 C         141.1599  144.4577  163.8799 C.ar    1  UNL1        0.0014
     27 C         141.1556  143.4007  164.9443 C.ar    1  UNL1        0.0007
     28 C         139.8688  142.7381  165.3380 C.ar    1  UNL1        0.0388
     29 C         138.5863  143.1324  164.6674 C.ar    1  UNL1        0.0302
     30 C         138.5906  144.1894  163.6031 C.ar    1  UNL1        0.1395
     31 F         137.3081  144.5837  162.9326 F       1  UNL1       -0.2044
     32 C         139.8645  141.6811  166.4023 C.3     1  UNL1        0.2827
     33 S         139.6134  140.2485  166.0356 S.O     1  UNL1        0.0405
     34 C         140.7682  139.3293  165.7679 C.3     1  UNL1        0.3201
     35 O         138.2075  139.7351  165.9366 O.co2   1  UNL1       -0.6809
@<TRIPOS>UNITY_ATOM_ATTR
33 1
charge 1
35 1
charge -1
@<TRIPOS>BOND
     1     8     7    1
     2     8     9    1
     3     9    10    1
     4    10    14    1
     5    14    15   ar
     6    15    16   ar
     7    16    17   ar
     8    17    19    1
     9    19    20    1
    10    19    21    1
    11    19    22    1
    12    17    18   ar
    13    10    11    1
    14    11    12    1
    15    12    13    1
    16    13     1    1
    17     1     2   ar
    18     2     3   ar
    19     3     4   ar
    20     4    23    1
    21    23    24    1
    22    24    25    1
    23    25    26   ar
    24    26    27   ar
    25    27    28   ar
    26    28    32    1
    27    32    33    1
    28    33    34    1
    29    33    35    2
    30    28    29   ar
    31    29    30   ar
    32    30    31    1
    33     4     5   ar
    34     5     6   ar
    35    13     8    1
    36     6     1   ar
    37    18    14   ar
    38    30    25   ar
@<TRIPOS>MOLECULE
*****
 35 38 0 0 0
SMALL
GASTEIGER

@<TRIPOS>ATOM
      1 C         139.4345  142.7979  159.6803 C.ar    1  UNL1        0.2204
      2 N         138.2051  142.8848  160.5354 N.ar    1  UNL1       -0.2089
      3 C         138.0150  141.9281  161.6749 C.ar    1  UNL1        0.1402
      4 C         139.0541  140.8844  161.9593 C.ar    1  UNL1        0.1773
      5 C         140.2834  140.7974  161.1042 C.ar    1  UNL1        0.1402
      6 N         140.4736  141.7542  159.9647 N.ar    1  UNL1       -0.2089
      7 C         140.7168  145.4671  160.1608 C.3     1  UNL1        0.0233
      8 C         140.2657  145.0892  158.7810 C.3     1  UNL1        0.0955
      9 C         140.4559  146.0459  157.6415 C.3     1  UNL1        0.1149
     10 N         140.0048  145.6680  156.2617 N.pl3   1  UNL1       -0.2590
     11 C         139.3637  144.3335  156.0215 C.3     1  UNL1        0.1166
     12 C         139.1736  143.3768  157.1610 C.3     1  UNL1        0.1151
     13 N         139.6246  143.7547  158.5407 N.pl3   1  UNL1       -0.2764
     14 C         140.1950  146.6248  155.1222 C.ar    1  UNL1        0.3120
     15 N         140.8806  146.3231  153.8226 N.ar    1  UNL1       -0.0922
     16 N         140.8422  147.5631  152.9794 N.ar    1  UNL1       -0.1018
     17 C         140.1329  148.6312  153.7579 C.ar    1  UNL1        0.3233
     18 O         139.7328  148.0513  155.0822 O.2     1  UNL1       -0.4012
     19 C         139.8697  150.0331  153.2936 C.3     1  UNL1        0.4711
     20 F         139.6066  151.4349  152.8293 F       1  UNL1       -0.1619
     21 F         139.3758  149.5051  151.9794 F       1  UNL1       -0.1619
     22 F         140.3636  150.5611  154.6079 F       1  UNL1       -0.1619
     23 O         138.8640  139.9277  163.0988 O.3     1  UNL1       -0.4674
     24 C         138.1521  140.3735  164.3416 C.3     1  UNL1        0.2344
     25 C         138.9393  140.7734  165.5542 C.ar    1  UNL1        0.0486
     26 C         139.0480  139.8363  166.7204 C.ar    1  UNL1        0.0014
     27 C         139.8352  140.2363  167.9331 C.ar    1  UNL1        0.0007
     28 C         140.5136  141.5733  167.9795 C.ar    1  UNL1        0.0388
     29 C         140.4048  142.5104  166.8133 C.ar    1  UNL1        0.0302
     30 C         139.6177  142.1105  165.6007 C.ar    1  UNL1        0.1395
     31 F         139.5089  143.0476  164.4345 F       1  UNL1       -0.2044
     32 C         141.3007  141.9732  169.1921 C.3     1  UNL1        0.2827
     33 S         140.6589  142.8060  170.2618 S.O     1  UNL1        0.0405
     34 C         140.4852  144.2823  170.0599 C.3     1  UNL1        0.3201
     35 O         140.1908  142.1628  171.5334 O.co2   1  UNL1       -0.6809
@<TRIPOS>UNITY_ATOM_ATTR
33 1
charge 1
35 1
charge -1
@<TRIPOS>BOND
     1     8     7    1
     2     8     9    1
     3     9    10    1
     4    10    14    1
     5    14    15   ar
     6    15    16   ar
     7    16    17   ar
     8    17    19    1
     9    19    20    1
    10    19    21    1
    11    19    22    1
    12    17    18   ar
    13    10    11    1
    14    11    12    1
    15    12    13    1
    16    13     1    1
    17     1     2   ar
    18     2     3   ar
    19     3     4   ar
    20     4    23    1
    21    23    24    1
    22    24    25    1
    23    25    26   ar
    24    26    27   ar
    25    27    28   ar
    26    28    32    1
    27    32    33    1
    28    33    34    1
    29    33    35    2
    30    28    29   ar
    31    29    30   ar
    32    30    31    1
    33     4     5   ar
    34     5     6   ar
    35    13     8    1
    36     6     1   ar
    37    18    14   ar
    38    30    25   ar
