@<TRIPOS>MOLECULE
*****
 29 32 0 0 0
SMALL
GASTEIGER

@<TRIPOS>ATOM
      1 C         139.2439  138.2336  164.6481 C.ar    1  UNL1        0.0783
      2 C         138.3986  137.4936  165.6421 C.ar    1  UNL1        0.1053
      3 N         138.1874  138.0589  167.0152 N.ar    1  UNL1       -0.2292
      4 C         138.8216  139.3643  167.3946 C.ar    1  UNL1        0.1289
      5 C         139.6669  140.1043  166.4007 C.ar    1  UNL1        0.0380
      6 C         140.4139  141.4021  166.4877 C.ar    1  UNL1        0.0097
      7 C         141.0868  141.6388  165.1681 C.ar    1  UNL1        0.0296
      8 S         140.7556  140.4873  164.2657 S.2     1  UNL1       -0.0866
      9 C         139.8780  139.5389  165.0275 C.ar    1  UNL1        0.0380
     10 C         141.9410  142.8197  164.8133 C.ar    1  UNL1        0.0060
     11 C         141.3331  144.0048  164.1235 C.ar    1  UNL1        0.0005
     12 C         142.1874  145.1857  163.7687 C.ar    1  UNL1        0.0000
     13 C         143.6494  145.1814  164.1037 C.ar    1  UNL1        0.0000
     14 C         144.2574  143.9963  164.7935 C.ar    1  UNL1        0.0000
     15 C         143.4031  142.8154  165.1483 C.ar    1  UNL1        0.0005
     16 N         138.3451  137.7123  162.2669 N.am    1  UNL1       -0.3253
     17 C         139.4550  137.6682  163.2749 C.2     1  UNL1        0.2448
     18 O         140.7762  137.0588  162.9097 O.2     1  UNL1       -0.2703
     19 H         138.4837  137.3412  161.3656 H       1  UNL1        0.1453
     20 H         137.4780  138.1122  162.5066 H       1  UNL1        0.1453
     21 N         138.6104  139.9296  168.7679 N.pl3   1  UNL1       -0.3183
     22 H         137.7113  139.9255  169.1690 H       1  UNL1        0.1482
     23 C         139.7690  140.5010  169.5301 C.3     1  UNL1        0.0861
     24 C         141.0224  139.6956  169.7045 C.3     1  UNL1        0.0224
     25 C         142.1811  140.2670  170.4666 C.3     1  UNL1        0.0188
     26 C         142.0864  141.6438  171.0544 C.3     1  UNL1        0.0687
     27 N         140.8330  142.4492  170.8801 N.3     1  UNL1       -0.2961
     28 C         139.6743  141.8778  170.1179 C.3     1  UNL1        0.0883
     29 H         141.1008  143.3116  170.4059 H       1  UNL1        0.1233
@<TRIPOS>BOND
     1    16    17   am
     2    17    18    2
     3    17     1    1
     4     1     2   ar
     5     2     3   ar
     6     3     4   ar
     7     4    21    1
     8    23    21    1
     9    23    24    1
    10    24    25    1
    11    25    26    1
    12    26    27    1
    13    27    28    1
    14     4     5   ar
    15     5     6   ar
    16     6     7   ar
    17     7    10    1
    18    10    11   ar
    19    11    12   ar
    20    12    13   ar
    21    13    14   ar
    22    14    15   ar
    23     7     8   ar
    24     8     9   ar
    25     9     1   ar
    26    28    23    1
    27     9     5   ar
    28    15    10   ar
    29    16    19    1
    30    16    20    1
    31    21    22    1
    32    27    29    1
@<TRIPOS>MOLECULE
*****
 29 32 0 0 0
SMALL
GASTEIGER

@<TRIPOS>ATOM
      1 C         140.3453  141.6224  169.7278 C.ar    1  UNL1        0.0783
      2 C         139.0766  140.9304  170.1296 C.ar    1  UNL1        0.1053
      3 N         138.4660  139.8998  169.2269 N.ar    1  UNL1       -0.2292
      4 C         139.1242  139.5611  167.9222 C.ar    1  UNL1        0.1289
      5 C         140.3929  140.2530  167.5204 C.ar    1  UNL1        0.0380
      6 C         141.2623  140.1285  166.3044 C.ar    1  UNL1        0.0097
      7 C         142.4101  141.0822  166.4556 C.ar    1  UNL1        0.0296
      8 S         142.2502  141.7961  167.7651 S.2     1  UNL1       -0.0866
      9 C         141.0035  141.2837  168.4232 C.ar    1  UNL1        0.0380
     10 C         143.5227  141.2861  165.4704 C.ar    1  UNL1        0.0060
     11 C         144.0995  140.1118  164.7367 C.ar    1  UNL1        0.0005
     12 C         145.2120  140.3159  163.7515 C.ar    1  UNL1        0.0000
     13 C         145.7477  141.6942  163.4999 C.ar    1  UNL1        0.0000
     14 C         145.1709  142.8685  164.2335 C.ar    1  UNL1        0.0000
     15 C         144.0584  142.6644  165.2187 C.ar    1  UNL1        0.0005
     16 N         140.8220  144.1107  170.3031 N.am    1  UNL1       -0.3253
     17 C         140.9558  142.6530  170.6306 C.2     1  UNL1        0.2448
     18 O         141.7003  142.2260  171.8609 O.2     1  UNL1       -0.2703
     19 H         141.2227  144.7872  170.8956 H       1  UNL1        0.1453
     20 H         140.3334  144.3910  169.4957 H       1  UNL1        0.1453
     21 N         138.5136  138.5304  167.0195 N.pl3   1  UNL1       -0.3183
     22 H         138.1578  137.6938  167.3974 H       1  UNL1        0.1482
     23 C         138.4449  138.7744  165.5411 C.3     1  UNL1        0.0861
     24 C         137.9582  140.0943  165.0207 C.3     1  UNL1        0.0224
     25 C         137.8895  140.3384  163.5423 C.3     1  UNL1        0.0188
     26 C         138.3076  139.2626  162.5843 C.3     1  UNL1        0.0687
     27 N         138.7944  137.9427  163.1047 N.3     1  UNL1       -0.2961
     28 C         138.8631  137.6986  164.5831 C.3     1  UNL1        0.0883
     29 H         139.7383  137.8126  162.7407 H       1  UNL1        0.1233
@<TRIPOS>BOND
     1    16    17   am
     2    17    18    2
     3    17     1    1
     4     1     2   ar
     5     2     3   ar
     6     3     4   ar
     7     4    21    1
     8    23    21    1
     9    23    24    1
    10    24    25    1
    11    25    26    1
    12    26    27    1
    13    27    28    1
    14     4     5   ar
    15     5     6   ar
    16     6     7   ar
    17     7    10    1
    18    10    11   ar
    19    11    12   ar
    20    12    13   ar
    21    13    14   ar
    22    14    15   ar
    23     7     8   ar
    24     8     9   ar
    25     9     1   ar
    26    28    23    1
    27     9     5   ar
    28    15    10   ar
    29    16    19    1
    30    16    20    1
    31    21    22    1
    32    27    29    1
@<TRIPOS>MOLECULE
*****
 29 32 0 0 0
SMALL
GASTEIGER

@<TRIPOS>ATOM
      1 C         139.7220  141.0232  169.4434 C.ar    1  UNL1        0.0783
      2 C         138.7309  139.9126  169.6283 C.ar    1  UNL1        0.1053
      3 N         138.1789  139.1934  168.4334 N.ar    1  UNL1       -0.2292
      4 C         138.6182  139.5846  167.0534 C.ar    1  UNL1        0.1289
      5 C         139.6094  140.6952  166.8686 C.ar    1  UNL1        0.0380
      6 C         140.2242  141.2975  165.6402 C.ar    1  UNL1        0.0097
      7 C         141.1562  142.3891  166.0760 C.ar    1  UNL1        0.0296
      8 S         141.1173  142.4614  167.5737 S.2     1  UNL1       -0.0866
      9 C         140.1613  141.4144  168.0636 C.ar    1  UNL1        0.0380
     10 C         141.9821  143.2562  165.1726 C.ar    1  UNL1        0.0060
     11 C         141.3200  144.3038  164.3276 C.ar    1  UNL1        0.0005
     12 C         142.1460  145.1709  163.4242 C.ar    1  UNL1        0.0000
     13 C         143.6339  144.9904  163.3659 C.ar    1  UNL1        0.0000
     14 C         144.2960  143.9427  164.2109 C.ar    1  UNL1        0.0000
     15 C         143.4700  143.0756  165.1142 C.ar    1  UNL1        0.0005
     16 N         139.6703  143.0443  171.0751 N.am    1  UNL1       -0.3253
     17 C         140.2740  141.7424  170.6384 C.2     1  UNL1        0.2448
     18 O         141.4297  141.1598  171.3968 O.2     1  UNL1       -0.2703
     19 H         140.0326  143.5164  171.8594 H       1  UNL1        0.1453
     20 H         138.9119  143.4267  170.5774 H       1  UNL1        0.1453
     21 N         138.0662  138.8653  165.8585 N.pl3   1  UNL1       -0.3183
     22 H         137.1017  138.6768  165.7996 H       1  UNL1        0.1482
     23 C         138.9836  138.4332  164.7533 C.3     1  UNL1        0.0861
     24 C         140.1834  137.5875  165.0622 C.3     1  UNL1        0.0224
     25 C         141.1010  137.1554  163.9570 C.3     1  UNL1        0.0188
     26 C         140.8188  137.5689  162.5431 C.3     1  UNL1        0.0687
     27 N         139.6190  138.4145  162.2342 N.3     1  UNL1       -0.2961
     28 C         138.7014  138.8467  163.3393 C.3     1  UNL1        0.0883
     29 H         139.0517  137.8890  161.5690 H       1  UNL1        0.1233
@<TRIPOS>BOND
     1    16    17   am
     2    17    18    2
     3    17     1    1
     4     1     2   ar
     5     2     3   ar
     6     3     4   ar
     7     4    21    1
     8    23    21    1
     9    23    24    1
    10    24    25    1
    11    25    26    1
    12    26    27    1
    13    27    28    1
    14     4     5   ar
    15     5     6   ar
    16     6     7   ar
    17     7    10    1
    18    10    11   ar
    19    11    12   ar
    20    12    13   ar
    21    13    14   ar
    22    14    15   ar
    23     7     8   ar
    24     8     9   ar
    25     9     1   ar
    26    28    23    1
    27     9     5   ar
    28    15    10   ar
    29    16    19    1
    30    16    20    1
    31    21    22    1
    32    27    29    1
@<TRIPOS>MOLECULE
*****
 29 32 0 0 0
SMALL
GASTEIGER

@<TRIPOS>ATOM
      1 C         138.9542  139.0592  164.2863 C.ar    1  UNL1        0.0783
      2 C         138.1500  139.3277  163.0490 C.ar    1  UNL1        0.1053
      3 N         137.8389  140.7392  162.6482 N.ar    1  UNL1       -0.2292
      4 C         138.3320  141.8824  163.4849 C.ar    1  UNL1        0.1289
      5 C         139.1363  141.6140  164.7222 C.ar    1  UNL1        0.0380
      6 C         139.7525  142.5305  165.7372 C.ar    1  UNL1        0.0097
      7 C         140.4445  141.6854  166.7652 C.ar    1  UNL1        0.0296
      8 S         140.2559  140.2465  166.3856 S.2     1  UNL1       -0.0866
      9 C         139.4474  140.2024  165.1230 C.ar    1  UNL1        0.0380
     10 C         141.1935  142.1904  167.9627 C.ar    1  UNL1        0.0060
     11 C         142.6234  141.7908  168.1763 C.ar    1  UNL1        0.0005
     12 C         143.3724  142.2959  169.3738 C.ar    1  UNL1        0.0000
     13 C         142.6916  143.2005  170.3577 C.ar    1  UNL1        0.0000
     14 C         141.2616  143.6001  170.1441 C.ar    1  UNL1        0.0000
     15 C         140.5126  143.0950  168.9466 C.ar    1  UNL1        0.0005
     16 N         140.4849  136.9648  164.1426 N.am    1  UNL1       -0.3253
     17 C         139.2653  137.6476  164.6871 C.2     1  UNL1        0.2448
     18 O         138.3568  136.9187  165.6324 O.2     1  UNL1       -0.2703
     19 H         140.6891  136.0383  164.4056 H       1  UNL1        0.1453
     20 H         141.0812  137.4432  163.5222 H       1  UNL1        0.1453
     21 N         138.0209  143.2940  163.0840 N.pl3   1  UNL1       -0.3183
     22 H         137.2030  143.7308  163.4150 H       1  UNL1        0.1482
     23 C         138.9559  144.0401  162.1790 C.3     1  UNL1        0.0861
     24 C         139.3729  143.4376  160.8702 C.3     1  UNL1        0.0224
     25 C         140.3079  144.1836  159.9651 C.3     1  UNL1        0.0188
     26 C         140.8259  145.5322  160.3688 C.3     1  UNL1        0.0687
     27 N         140.4089  146.1347  161.6777 N.3     1  UNL1       -0.2961
     28 C         139.4739  145.3887  162.5828 C.3     1  UNL1        0.0883
     29 H         139.9618  147.0259  161.4624 H       1  UNL1        0.1233
@<TRIPOS>BOND
     1    16    17   am
     2    17    18    2
     3    17     1    1
     4     1     2   ar
     5     2     3   ar
     6     3     4   ar
     7     4    21    1
     8    23    21    1
     9    23    24    1
    10    24    25    1
    11    25    26    1
    12    26    27    1
    13    27    28    1
    14     4     5   ar
    15     5     6   ar
    16     6     7   ar
    17     7    10    1
    18    10    11   ar
    19    11    12   ar
    20    12    13   ar
    21    13    14   ar
    22    14    15   ar
    23     7     8   ar
    24     8     9   ar
    25     9     1   ar
    26    28    23    1
    27     9     5   ar
    28    15    10   ar
    29    16    19    1
    30    16    20    1
    31    21    22    1
    32    27    29    1
@<TRIPOS>MOLECULE
*****
 29 32 0 0 0
SMALL
GASTEIGER

@<TRIPOS>ATOM
      1 C         139.3931  144.1482  162.4329 C.ar    1  UNL1        0.0783
      2 C         138.6241  143.4434  161.3550 C.ar    1  UNL1        0.1053
      3 N         138.1707  142.0284  161.5600 N.ar    1  UNL1       -0.2292
      4 C         138.4863  141.3180  162.8430 C.ar    1  UNL1        0.1289
      5 C         139.2553  142.0228  163.9209 C.ar    1  UNL1        0.0380
      6 C         139.7108  141.5825  165.2805 C.ar    1  UNL1        0.0097
      7 C         140.4457  142.7255  165.9158 C.ar    1  UNL1        0.0296
      8 S         140.4444  143.8722  164.9488 S.2     1  UNL1       -0.0866
      9 C         139.7087  143.4379  163.7158 C.ar    1  UNL1        0.0380
     10 C         141.0719  142.7223  167.2788 C.ar    1  UNL1        0.0060
     11 C         140.2935  143.2143  168.4629 C.ar    1  UNL1        0.0005
     12 C         140.9199  143.2111  169.8260 C.ar    1  UNL1        0.0000
     13 C         142.3244  142.7160  170.0049 C.ar    1  UNL1        0.0000
     14 C         143.1028  142.2241  168.8208 C.ar    1  UNL1        0.0000
     15 C         142.4765  142.2273  167.4577 C.ar    1  UNL1        0.0005
     16 N         141.0933  146.0562  162.9004 N.am    1  UNL1       -0.3253
     17 C         139.8465  145.5632  162.2279 C.2     1  UNL1        0.2448
     18 O         139.0530  146.4853  161.3502 O.2     1  UNL1       -0.2703
     19 H         141.3909  146.9850  162.7658 H       1  UNL1        0.1453
     20 H         141.6141  145.4510  163.4764 H       1  UNL1        0.1453
     21 N         138.0329  139.9029  163.0480 N.pl3   1  UNL1       -0.3183
     22 H         137.0729  139.6855  163.0254 H       1  UNL1        0.1482
     23 C         139.0419  138.8193  163.2873 C.3     1  UNL1        0.0861
     24 C         139.1619  138.1927  164.6449 C.3     1  UNL1        0.0224
     25 C         140.1709  137.1090  164.8843 C.3     1  UNL1        0.0188
     26 C         141.0601  136.6518  163.7661 C.3     1  UNL1        0.0687
     27 N         140.9401  137.2783  162.4085 N.3     1  UNL1       -0.2961
     28 C         139.9311  138.3621  162.1691 C.3     1  UNL1        0.0883
     29 H         140.7245  136.5256  161.7548 H       1  UNL1        0.1233
@<TRIPOS>BOND
     1    16    17   am
     2    17    18    2
     3    17     1    1
     4     1     2   ar
     5     2     3   ar
     6     3     4   ar
     7     4    21    1
     8    23    21    1
     9    23    24    1
    10    24    25    1
    11    25    26    1
    12    26    27    1
    13    27    28    1
    14     4     5   ar
    15     5     6   ar
    16     6     7   ar
    17     7    10    1
    18    10    11   ar
    19    11    12   ar
    20    12    13   ar
    21    13    14   ar
    22    14    15   ar
    23     7     8   ar
    24     8     9   ar
    25     9     1   ar
    26    28    23    1
    27     9     5   ar
    28    15    10   ar
    29    16    19    1
    30    16    20    1
    31    21    22    1
    32    27    29    1
@<TRIPOS>MOLECULE
*****
 29 32 0 0 0
SMALL
GASTEIGER

@<TRIPOS>ATOM
      1 C         140.8851  138.8880  163.1933 C.ar    1  UNL1        0.0783
      2 C         141.4521  139.2236  161.8458 C.ar    1  UNL1        0.1053
      3 N         142.0209  140.5877  161.5899 N.ar    1  UNL1       -0.2292
      4 C         142.0228  141.6164  162.6817 C.ar    1  UNL1        0.1289
      5 C         141.4558  141.2808  164.0292 C.ar    1  UNL1        0.0380
      6 C         141.3213  142.0830  165.2895 C.ar    1  UNL1        0.0097
      7 C         140.6694  141.2146  166.3243 C.ar    1  UNL1        0.0296
      8 S         140.4009  139.8757  165.7035 S.2     1  UNL1       -0.0866
      9 C         140.8870  139.9167  164.2850 C.ar    1  UNL1        0.0380
     10 C         140.3431  141.6147  167.7327 C.ar    1  UNL1        0.0060
     11 C         139.7189  140.6227  168.6687 C.ar    1  UNL1        0.0005
     12 C         139.3926  141.0230  170.0771 C.ar    1  UNL1        0.0000
     13 C         139.6906  142.4151  170.5494 C.ar    1  UNL1        0.0000
     14 C         140.3149  143.4071  169.6133 C.ar    1  UNL1        0.0000
     15 C         140.6411  143.0069  168.2049 C.ar    1  UNL1        0.0005
     16 N         141.2091  136.4159  163.9239 N.am    1  UNL1       -0.3253
     17 C         140.3163  137.5238  163.4491 C.2     1  UNL1        0.2448
     18 O         138.8545  137.2676  163.2302 O.2     1  UNL1       -0.2703
     19 H         140.8357  135.5206  164.0918 H       1  UNL1        0.1453
     20 H         142.1684  136.5841  164.0676 H       1  UNL1        0.1453
     21 N         142.5917  142.9806  162.4257 N.pl3   1  UNL1       -0.3183
     22 H         143.5627  143.1291  162.4907 H       1  UNL1        0.1482
     23 C         141.6810  144.1184  162.0709 C.3     1  UNL1        0.0861
     24 C         141.0814  144.1991  160.6983 C.3     1  UNL1        0.0224
     25 C         140.1707  145.3369  160.3434 C.3     1  UNL1        0.0188
     26 C         139.8597  146.3941  161.3611 C.3     1  UNL1        0.0687
     27 N         140.4593  146.3134  162.7337 N.3     1  UNL1       -0.2961
     28 C         141.3699  145.1756  163.0886 C.3     1  UNL1        0.0883
     29 H         139.6819  146.2852  163.3934 H       1  UNL1        0.1233
@<TRIPOS>BOND
     1    16    17   am
     2    17    18    2
     3    17     1    1
     4     1     2   ar
     5     2     3   ar
     6     3     4   ar
     7     4    21    1
     8    23    21    1
     9    23    24    1
    10    24    25    1
    11    25    26    1
    12    26    27    1
    13    27    28    1
    14     4     5   ar
    15     5     6   ar
    16     6     7   ar
    17     7    10    1
    18    10    11   ar
    19    11    12   ar
    20    12    13   ar
    21    13    14   ar
    22    14    15   ar
    23     7     8   ar
    24     8     9   ar
    25     9     1   ar
    26    28    23    1
    27     9     5   ar
    28    15    10   ar
    29    16    19    1
    30    16    20    1
    31    21    22    1
    32    27    29    1
@<TRIPOS>MOLECULE
*****
 29 32 0 0 0
SMALL
GASTEIGER

@<TRIPOS>ATOM
      1 C         142.3372  140.5697  168.8398 C.ar    1  UNL1        0.0783
      2 C         143.3520  141.5787  169.2896 C.ar    1  UNL1        0.1053
      3 N         143.8700  142.6031  168.3242 N.ar    1  UNL1       -0.2292
      4 C         143.3734  142.6186  166.9088 C.ar    1  UNL1        0.1289
      5 C         142.3587  141.6097  166.4590 C.ar    1  UNL1        0.0380
      6 C         141.6889  141.3808  165.1365 C.ar    1  UNL1        0.0097
      7 C         140.7569  140.2149  165.2847 C.ar    1  UNL1        0.0296
      8 S         140.8506  139.7232  166.6987 S.2     1  UNL1       -0.0866
      9 C         141.8406  140.5852  167.4245 C.ar    1  UNL1        0.0380
     10 C         139.8843  139.6413  164.2078 C.ar    1  UNL1        0.0060
     11 C         138.7806  140.4678  163.6172 C.ar    1  UNL1        0.0005
     12 C         137.9080  139.8941  162.5404 C.ar    1  UNL1        0.0000
     13 C         138.1391  138.4941  162.0541 C.ar    1  UNL1        0.0000
     14 C         139.2427  137.6676  162.6447 C.ar    1  UNL1        0.0000
     15 C         140.1153  138.2413  163.7216 C.ar    1  UNL1        0.0005
     16 N         142.7261  138.4607  170.3064 N.am    1  UNL1       -0.3253
     17 C         141.8192  139.5453  169.8053 C.2     1  UNL1        0.2448
     18 O         140.3940  139.6055  170.2697 O.2     1  UNL1       -0.2703
     19 H         142.3861  137.7884  170.9400 H       1  UNL1        0.1453
     20 H         143.6614  138.4212  170.0016 H       1  UNL1        0.1453
     21 N         143.8915  143.6431  165.9434 N.pl3   1  UNL1       -0.3183
     22 H         143.9645  144.5857  166.2180 H       1  UNL1        0.1482
     23 C         144.2985  143.2314  164.5597 C.3     1  UNL1        0.0861
     24 C         143.6464  143.8648  163.3665 C.3     1  UNL1        0.0224
     25 C         144.0533  143.4531  161.9827 C.3     1  UNL1        0.0188
     26 C         145.1124  142.4081  161.7920 C.3     1  UNL1        0.0687
     27 N         145.7645  141.7747  162.9852 N.3     1  UNL1       -0.2961
     28 C         145.3576  142.1864  164.3690 C.3     1  UNL1        0.0883
     29 H         146.7648  141.9577  162.9057 H       1  UNL1        0.1233
@<TRIPOS>BOND
     1    16    17   am
     2    17    18    2
     3    17     1    1
     4     1     2   ar
     5     2     3   ar
     6     3     4   ar
     7     4    21    1
     8    23    21    1
     9    23    24    1
    10    24    25    1
    11    25    26    1
    12    26    27    1
    13    27    28    1
    14     4     5   ar
    15     5     6   ar
    16     6     7   ar
    17     7    10    1
    18    10    11   ar
    19    11    12   ar
    20    12    13   ar
    21    13    14   ar
    22    14    15   ar
    23     7     8   ar
    24     8     9   ar
    25     9     1   ar
    26    28    23    1
    27     9     5   ar
    28    15    10   ar
    29    16    19    1
    30    16    20    1
    31    21    22    1
    32    27    29    1
@<TRIPOS>MOLECULE
*****
 29 32 0 0 0
SMALL
GASTEIGER

@<TRIPOS>ATOM
      1 C         144.1335  139.4888  164.3848 C.ar    1  UNL1        0.0783
      2 C         144.8789  138.5404  165.2764 C.ar    1  UNL1        0.1053
      3 N         144.3961  138.2886  166.6740 N.ar    1  UNL1       -0.2292
      4 C         143.1678  138.9852  167.1802 C.ar    1  UNL1        0.1289
      5 C         142.4224  139.9336  166.2886 C.ar    1  UNL1        0.0380
      6 C         141.1895  140.7590  166.5089 C.ar    1  UNL1        0.0097
      7 C         140.9103  141.5210  165.2474 C.ar    1  UNL1        0.0296
      8 S         141.9707  141.1664  164.2474 S.2     1  UNL1       -0.0866
      9 C         142.9052  140.1854  164.8910 C.ar    1  UNL1        0.0380
     10 C         139.7708  142.4707  165.0249 C.ar    1  UNL1        0.0060
     11 C         138.6127  142.0637  164.1629 C.ar    1  UNL1        0.0005
     12 C         137.4732  143.0136  163.9404 C.ar    1  UNL1        0.0000
     13 C         137.4919  144.3703  164.5798 C.ar    1  UNL1        0.0000
     14 C         138.6500  144.7773  165.4418 C.ar    1  UNL1        0.0000
     15 C         139.7895  143.8275  165.6643 C.ar    1  UNL1        0.0005
     16 N         144.3824  138.7160  161.9169 N.am    1  UNL1       -0.3253
     17 C         144.6163  139.7405  162.9872 C.2     1  UNL1        0.2448
     18 O         145.3331  141.0170  162.6598 O.2     1  UNL1       -0.2703
     19 H         144.6993  138.8812  160.9995 H       1  UNL1        0.1453
     20 H         143.9119  137.8782  162.1317 H       1  UNL1        0.1453
     21 N         142.6850  138.7333  168.5779 N.pl3   1  UNL1       -0.3183
     22 H         142.6695  137.8162  168.9356 H       1  UNL1        0.1482
     23 C         142.2260  139.8788  169.4306 C.3     1  UNL1        0.0861
     24 C         143.1058  141.0805  169.6091 C.3     1  UNL1        0.0224
     25 C         142.6469  142.2260  170.4619 C.3     1  UNL1        0.0188
     26 C         141.3081  142.1698  171.1361 C.3     1  UNL1        0.0687
     27 N         140.4283  140.9681  170.9576 N.3     1  UNL1       -0.2961
     28 C         140.8873  139.8226  170.1049 C.3     1  UNL1        0.0883
     29 H         139.5522  141.3017  170.5559 H       1  UNL1        0.1233
@<TRIPOS>BOND
     1    16    17   am
     2    17    18    2
     3    17     1    1
     4     1     2   ar
     5     2     3   ar
     6     3     4   ar
     7     4    21    1
     8    23    21    1
     9    23    24    1
    10    24    25    1
    11    25    26    1
    12    26    27    1
    13    27    28    1
    14     4     5   ar
    15     5     6   ar
    16     6     7   ar
    17     7    10    1
    18    10    11   ar
    19    11    12   ar
    20    12    13   ar
    21    13    14   ar
    22    14    15   ar
    23     7     8   ar
    24     8     9   ar
    25     9     1   ar
    26    28    23    1
    27     9     5   ar
    28    15    10   ar
    29    16    19    1
    30    16    20    1
    31    21    22    1
    32    27    29    1
@<TRIPOS>MOLECULE
*****
 29 32 0 0 0
SMALL
GASTEIGER

@<TRIPOS>ATOM
      1 C         142.7411  142.8963  162.4483 C.ar    1  UNL1        0.0783
      2 C         141.9068  142.4954  161.2680 C.ar    1  UNL1        0.1053
      3 N         140.5746  141.8392  161.4794 N.ar    1  UNL1       -0.2292
      4 C         140.0767  141.5840  162.8712 C.ar    1  UNL1        0.1289
      5 C         140.9110  141.9849  164.0515 C.ar    1  UNL1        0.0380
      6 C         140.6840  141.8621  165.5291 C.ar    1  UNL1        0.0097
      7 C         141.8760  142.4423  166.2309 C.ar    1  UNL1        0.0296
      8 S         142.8396  142.9238  165.1871 S.2     1  UNL1       -0.0866
      9 C         142.2432  142.6410  163.8401 C.ar    1  UNL1        0.0380
     10 C         142.0703  142.5264  167.7159 C.ar    1  UNL1        0.0060
     11 C         143.4258  142.2826  168.3100 C.ar    1  UNL1        0.0005
     12 C         143.6200  142.3667  169.7950 C.ar    1  UNL1        0.0000
     13 C         142.4587  142.6947  170.6860 C.ar    1  UNL1        0.0000
     14 C         141.1031  142.9385  170.0919 C.ar    1  UNL1        0.0000
     15 C         140.9089  142.8544  168.6069 C.ar    1  UNL1        0.0005
     16 N         145.2154  142.7645  161.6669 N.am    1  UNL1       -0.3253
     17 C         144.0733  143.5524  162.2369 C.2     1  UNL1        0.2448
     18 O         144.2635  144.9965  162.5956 O.2     1  UNL1       -0.2703
     19 H         146.0897  143.1952  161.5281 H       1  UNL1        0.1453
     20 H         145.0906  141.8168  161.4315 H       1  UNL1        0.1453
     21 N         138.7444  140.9278  163.0825 N.pl3   1  UNL1       -0.3183
     22 H         137.9453  141.2782  162.6267 H       1  UNL1        0.1482
     23 C         138.6298  139.7378  163.9884 C.3     1  UNL1        0.0861
     24 C         138.0887  139.9023  165.3778 C.3     1  UNL1        0.0224
     25 C         137.9741  138.7123  166.2837 C.3     1  UNL1        0.0188
     26 C         138.4005  137.3579  165.8004 C.3     1  UNL1        0.0687
     27 N         138.9415  137.1934  164.4111 N.3     1  UNL1       -0.2961
     28 C         139.0562  138.3833  163.5051 C.3     1  UNL1        0.0883
     29 H         138.3386  136.5202  163.9381 H       1  UNL1        0.1233
@<TRIPOS>BOND
     1    16    17   am
     2    17    18    2
     3    17     1    1
     4     1     2   ar
     5     2     3   ar
     6     3     4   ar
     7     4    21    1
     8    23    21    1
     9    23    24    1
    10    24    25    1
    11    25    26    1
    12    26    27    1
    13    27    28    1
    14     4     5   ar
    15     5     6   ar
    16     6     7   ar
    17     7    10    1
    18    10    11   ar
    19    11    12   ar
    20    12    13   ar
    21    13    14   ar
    22    14    15   ar
    23     7     8   ar
    24     8     9   ar
    25     9     1   ar
    26    28    23    1
    27     9     5   ar
    28    15    10   ar
    29    16    19    1
    30    16    20    1
    31    21    22    1
    32    27    29    1
