@<TRIPOS>MOLECULE
*****
 21 22 0 0 0
SMALL
GASTEIGER

@<TRIPOS>ATOM
      1 C         140.0137  139.7262  166.5469 C.2     1  UNL1        0.2254
      2 O         140.1419  140.4643  167.8464 O.2     1  UNL1       -0.2749
      3 N         141.2435  139.3299  165.7849 N.am    1  UNL1       -0.2756
      4 C         141.1152  138.5917  164.4854 C.3     1  UNL1        0.0927
      5 C         140.9439  139.2139  163.1313 C.3     1  UNL1        0.0383
      6 C         140.8585  138.1085  162.1208 C.3     1  UNL1        0.0704
      7 N         140.9771  136.8033  162.8505 N.3     1  UNL1       -0.2960
      8 C         141.1358  137.1019  164.3118 C.3     1  UNL1        0.0887
      9 H         141.7909  136.2900  162.5117 H       1  UNL1        0.1233
     10 C         138.0092  140.2705  164.9862 C.3     1  UNL1        0.0096
     11 C         138.6556  139.3843  166.0093 C.3     1  UNL1        0.0767
     12 C         137.9441  138.1563  166.4949 C.3     1  UNL1        0.0096
     13 C         142.6015  139.6717  166.3224 C.3     1  UNL1        0.1210
     14 C         143.5351  140.5238  165.5147 C.ar    1  UNL1        0.0091
     15 C         144.5947  139.8816  164.6693 C.ar    1  UNL1       -0.0017
     16 C         145.5284  140.7336  163.8616 C.ar    1  UNL1        0.0007
     17 C         145.4024  142.2278  163.8994 C.ar    1  UNL1        0.0122
     18 C         144.3428  142.8700  164.7449 C.ar    1  UNL1        0.0679
     19 CL        144.2168  144.3643  164.7827 Cl      1  UNL1       -0.0814
     20 C         143.4092  142.0180  165.5526 C.ar    1  UNL1        0.0658
     21 CL        142.3495  142.6602  166.3980 Cl      1  UNL1       -0.0816
@<TRIPOS>BOND
     1    10    11    1
     2    11    12    1
     3    11     1    1
     4     1     2    2
     5     1     3   am
     6     3    13    1
     7    13    14    1
     8    14    15   ar
     9    15    16   ar
    10    16    17   ar
    11    17    18   ar
    12    18    19    1
    13    18    20   ar
    14    20    21    1
    15     4     3    1
    16     4     5    1
    17     5     6    1
    18     6     7    1
    19     7     8    1
    20    20    14   ar
    21     8     4    1
    22     7     9    1
@<TRIPOS>MOLECULE
*****
 21 22 0 0 0
SMALL
GASTEIGER

@<TRIPOS>ATOM
      1 C         138.9268  140.5148  165.8123 C.2     1  UNL1        0.2254
      2 O         138.2253  141.2406  164.7028 O.2     1  UNL1       -0.2749
      3 N         139.8139  141.2684  166.7583 N.am    1  UNL1       -0.2756
      4 C         140.5155  140.5424  167.8678 C.3     1  UNL1        0.0927
      5 C         141.8943  139.9553  167.8038 C.3     1  UNL1        0.0383
      6 C         142.1924  139.3262  169.1325 C.3     1  UNL1        0.0704
      7 N         140.9977  139.5246  170.0177 N.3     1  UNL1       -0.2960
      8 C         139.9614  140.2763  169.2361 C.3     1  UNL1        0.0887
      9 H         141.2641  140.0603  170.8438 H       1  UNL1        0.1233
     10 C         139.5933  138.0814  165.1922 C.3     1  UNL1        0.0096
     11 C         138.7411  139.0352  165.9757 C.3     1  UNL1        0.0767
     12 C         137.7034  138.5097  166.9227 C.3     1  UNL1        0.0096
     13 C         139.9996  142.7478  166.5949 C.3     1  UNL1        0.1210
     14 C         140.8323  143.2790  165.4659 C.ar    1  UNL1        0.0091
     15 C         142.2378  142.7907  165.2764 C.ar    1  UNL1       -0.0017
     16 C         143.0705  143.3219  164.1475 C.ar    1  UNL1        0.0007
     17 C         142.4976  144.3414  163.2081 C.ar    1  UNL1        0.0122
     18 C         141.0921  144.8297  163.3977 C.ar    1  UNL1        0.0679
     19 CL        140.5192  145.8493  162.4583 Cl      1  UNL1       -0.0814
     20 C         140.2594  144.2985  164.5266 C.ar    1  UNL1        0.0658
     21 CL        138.8538  144.7869  164.7162 Cl      1  UNL1       -0.0816
@<TRIPOS>BOND
     1    10    11    1
     2    11    12    1
     3    11     1    1
     4     1     2    2
     5     1     3   am
     6     3    13    1
     7    13    14    1
     8    14    15   ar
     9    15    16   ar
    10    16    17   ar
    11    17    18   ar
    12    18    19    1
    13    18    20   ar
    14    20    21    1
    15     4     3    1
    16     4     5    1
    17     5     6    1
    18     6     7    1
    19     7     8    1
    20    20    14   ar
    21     8     4    1
    22     7     9    1
@<TRIPOS>MOLECULE
*****
 21 22 0 0 0
SMALL
GASTEIGER

@<TRIPOS>ATOM
      1 C         142.1526  140.3959  165.1251 C.2     1  UNL1        0.2254
      2 O         142.6830  140.9594  163.8402 O.2     1  UNL1       -0.2749
      3 N         141.4961  141.2999  166.1261 N.am    1  UNL1       -0.2756
      4 C         140.9656  140.7363  167.4110 C.3     1  UNL1        0.0927
      5 C         141.7329  140.5863  168.6912 C.3     1  UNL1        0.0383
      6 C         140.8162  139.9810  169.7128 C.3     1  UNL1        0.0704
      7 N         139.4824  139.7571  169.0639 N.3     1  UNL1       -0.2960
      8 C         139.5748  140.2239  167.6414 C.3     1  UNL1        0.0887
      9 H         138.7643  140.2882  169.5565 H       1  UNL1        0.1233
     10 C         143.4697  138.4090  166.1583 C.3     1  UNL1        0.0096
     11 C         142.2785  138.9284  165.4091 C.3     1  UNL1        0.0767
     12 C         141.2134  137.9803  164.9439 C.3     1  UNL1        0.0096
     13 C         141.3701  142.7673  165.8421 C.3     1  UNL1        0.1210
     14 C         140.2812  143.2657  164.9388 C.ar    1  UNL1        0.0091
     15 C         138.9256  142.6245  164.9737 C.ar    1  UNL1       -0.0017
     16 C         137.8367  143.1228  164.0704 C.ar    1  UNL1        0.0007
     17 C         138.1035  144.2623  163.1322 C.ar    1  UNL1        0.0122
     18 C         139.4591  144.9035  163.0972 C.ar    1  UNL1        0.0679
     19 CL        139.7258  146.0431  162.1589 Cl      1  UNL1       -0.0814
     20 C         140.5480  144.4052  164.0005 C.ar    1  UNL1        0.0658
     21 CL        141.9036  145.0464  163.9656 Cl      1  UNL1       -0.0816
@<TRIPOS>BOND
     1    10    11    1
     2    11    12    1
     3    11     1    1
     4     1     2    2
     5     1     3   am
     6     3    13    1
     7    13    14    1
     8    14    15   ar
     9    15    16   ar
    10    16    17   ar
    11    17    18   ar
    12    18    19    1
    13    18    20   ar
    14    20    21    1
    15     4     3    1
    16     4     5    1
    17     5     6    1
    18     6     7    1
    19     7     8    1
    20    20    14   ar
    21     8     4    1
    22     7     9    1
@<TRIPOS>MOLECULE
*****
 21 22 0 0 0
SMALL
GASTEIGER

@<TRIPOS>ATOM
      1 C         140.6334  139.9022  168.8198 C.2     1  UNL1        0.2254
      2 O         139.4612  139.8533  169.7544 O.2     1  UNL1       -0.2749
      3 N         140.4127  139.8564  167.3368 N.am    1  UNL1       -0.2756
      4 C         141.5849  139.9053  166.4022 C.3     1  UNL1        0.0927
      5 C         142.4780  138.7536  166.0472 C.3     1  UNL1        0.0383
      6 C         143.5150  139.2509  165.0841 C.3     1  UNL1        0.0704
      7 N         143.2627  140.7100  164.8439 N.3     1  UNL1       -0.2960
      8 C         142.0699  141.1143  165.6585 C.3     1  UNL1        0.0887
      9 H         143.0764  140.8707  163.8540 H       1  UNL1        0.1233
     10 C         142.6961  138.7774  169.9289 C.3     1  UNL1        0.0096
     11 C         142.0264  139.9968  169.3681 C.3     1  UNL1        0.0767
     12 C         142.7496  141.3109  169.3557 C.3     1  UNL1        0.0096
     13 C         139.0197  139.7618  166.7884 C.3     1  UNL1        0.1210
     14 C         138.8013  139.3496  165.3628 C.ar    1  UNL1        0.0091
     15 C         139.0592  137.9325  164.9439 C.ar    1  UNL1       -0.0017
     16 C         138.8409  137.5203  163.5183 C.ar    1  UNL1        0.0007
     17 C         138.3646  138.5251  162.5116 C.ar    1  UNL1        0.0122
     18 C         138.1067  139.9421  162.9305 C.ar    1  UNL1        0.0679
     19 CL        137.6303  140.9470  161.9237 Cl      1  UNL1       -0.0814
     20 C         138.3250  140.3544  164.3561 C.ar    1  UNL1        0.0658
     21 CL        138.0671  141.7714  164.7750 Cl      1  UNL1       -0.0816
@<TRIPOS>BOND
     1    10    11    1
     2    11    12    1
     3    11     1    1
     4     1     2    2
     5     1     3   am
     6     3    13    1
     7    13    14    1
     8    14    15   ar
     9    15    16   ar
    10    16    17   ar
    11    17    18   ar
    12    18    19    1
    13    18    20   ar
    14    20    21    1
    15     4     3    1
    16     4     5    1
    17     5     6    1
    18     6     7    1
    19     7     8    1
    20    20    14   ar
    21     8     4    1
    22     7     9    1
@<TRIPOS>MOLECULE
*****
 21 22 0 0 0
SMALL
GASTEIGER

@<TRIPOS>ATOM
      1 C         142.6321  140.1186  168.4854 C.2     1  UNL1        0.2254
      2 O         142.9017  138.9190  169.3445 O.2     1  UNL1       -0.2749
      3 N         142.7678  140.0194  166.9948 N.am    1  UNL1       -0.2756
      4 C         142.4981  141.2191  166.1357 C.3     1  UNL1        0.0927
      5 C         143.5083  142.2422  165.7081 C.3     1  UNL1        0.0383
      6 C         142.8056  143.2618  164.8614 C.3     1  UNL1        0.0704
      7 N         141.3611  142.8688  164.7659 N.3     1  UNL1       -0.2960
      8 C         141.1711  141.6063  165.5534 C.3     1  UNL1        0.0887
      9 H         141.1095  142.7093  163.7903 H       1  UNL1        0.1233
     10 C         140.7735  141.7439  169.2943 C.3     1  UNL1        0.0096
     11 C         142.2268  141.4175  169.1168 C.3     1  UNL1        0.0767
     12 C         143.2748  142.3900  169.5707 C.3     1  UNL1        0.0096
     13 C         143.1730  138.7206  166.3634 C.3     1  UNL1        0.1210
     14 C         142.7192  138.3889  164.9727 C.ar    1  UNL1        0.0091
     15 C         141.4005  137.7075  164.7566 C.ar    1  UNL1       -0.0017
     16 C         140.9466  137.3758  163.3660 C.ar    1  UNL1        0.0007
     17 C         141.8114  137.7255  162.1914 C.ar    1  UNL1        0.0122
     18 C         143.1302  138.4069  162.4074 C.ar    1  UNL1        0.0679
     19 CL        143.9950  138.7567  161.2327 Cl      1  UNL1       -0.0814
     20 C         143.5840  138.7386  163.7981 C.ar    1  UNL1        0.0658
     21 CL        144.9027  139.4200  164.0141 Cl      1  UNL1       -0.0816
@<TRIPOS>BOND
     1    10    11    1
     2    11    12    1
     3    11     1    1
     4     1     2    2
     5     1     3   am
     6     3    13    1
     7    13    14    1
     8    14    15   ar
     9    15    16   ar
    10    16    17   ar
    11    17    18   ar
    12    18    19    1
    13    18    20   ar
    14    20    21    1
    15     4     3    1
    16     4     5    1
    17     5     6    1
    18     6     7    1
    19     7     8    1
    20    20    14   ar
    21     8     4    1
    22     7     9    1
@<TRIPOS>MOLECULE
*****
 21 22 0 0 0
SMALL
GASTEIGER

@<TRIPOS>ATOM
      1 C         141.9074  140.1868  165.9000 C.2     1  UNL1        0.2254
      2 O         140.8756  140.2664  166.9858 O.2     1  UNL1       -0.2749
      3 N         142.3689  141.4366  165.2108 N.am    1  UNL1       -0.2756
      4 C         143.4007  141.3569  164.1249 C.3     1  UNL1        0.0927
      5 C         143.1286  141.1604  162.6630 C.3     1  UNL1        0.0383
      6 C         144.4455  141.1418  161.9449 C.3     1  UNL1        0.0704
      7 N         145.5314  141.3268  162.9631 N.3     1  UNL1       -0.2960
      8 C         144.8856  141.4598  164.3105 C.3     1  UNL1        0.0887
      9 H         146.0653  142.1695  162.7505 H       1  UNL1        0.1233
     10 C         141.8334  138.0617  164.4071 C.3     1  UNL1        0.0096
     11 C         142.4778  138.8573  165.5034 C.3     1  UNL1        0.0767
     12 C         143.6924  138.3235  166.2031 C.3     1  UNL1        0.0096
     13 C         141.7985  142.7660  165.6074 C.3     1  UNL1        0.1210
     14 C         140.6338  143.3372  164.8542 C.ar    1  UNL1        0.0091
     15 C         139.2539  142.7956  165.0836 C.ar    1  UNL1       -0.0017
     16 C         138.0892  143.3668  164.3305 C.ar    1  UNL1        0.0007
     17 C         138.3044  144.4796  163.3481 C.ar    1  UNL1        0.0122
     18 C         139.6842  145.0213  163.1187 C.ar    1  UNL1        0.0679
     19 CL        139.8993  146.1341  162.1362 Cl      1  UNL1       -0.0814
     20 C         140.8489  144.4501  163.8718 C.ar    1  UNL1        0.0658
     21 CL        142.2288  144.9917  163.6424 Cl      1  UNL1       -0.0816
@<TRIPOS>BOND
     1    10    11    1
     2    11    12    1
     3    11     1    1
     4     1     2    2
     5     1     3   am
     6     3    13    1
     7    13    14    1
     8    14    15   ar
     9    15    16   ar
    10    16    17   ar
    11    17    18   ar
    12    18    19    1
    13    18    20   ar
    14    20    21    1
    15     4     3    1
    16     4     5    1
    17     5     6    1
    18     6     7    1
    19     7     8    1
    20    20    14   ar
    21     8     4    1
    22     7     9    1
@<TRIPOS>MOLECULE
*****
 21 22 0 0 0
SMALL
GASTEIGER

@<TRIPOS>ATOM
      1 C         142.7444  140.3430  165.4715 C.2     1  UNL1        0.2254
      2 O         143.8652  141.2603  165.0812 O.2     1  UNL1       -0.2749
      3 N         141.4488  140.3785  164.7165 N.am    1  UNL1       -0.2756
      4 C         140.3279  139.4612  165.1068 C.3     1  UNL1        0.0927
      5 C         140.0972  138.0765  164.5780 C.3     1  UNL1        0.0383
      6 C         138.8677  137.5269  165.2387 C.3     1  UNL1        0.0704
      7 N         138.3387  138.5720  166.1758 N.3     1  UNL1       -0.2960
      8 C         139.2412  139.7674  166.0942 C.3     1  UNL1        0.0887
      9 H         138.3298  138.2094  167.1292 H       1  UNL1        0.1233
     10 C         142.4320  139.7645  167.9850 C.3     1  UNL1        0.0096
     11 C         142.9193  139.3901  166.6167 C.3     1  UNL1        0.0767
     12 C         143.5814  138.0627  166.3935 C.3     1  UNL1        0.0096
     13 C         141.2739  141.3314  163.5713 C.3     1  UNL1        0.1210
     14 C         140.0826  142.2419  163.5285 C.ar    1  UNL1        0.0091
     15 C         139.1316  142.1788  162.3702 C.ar    1  UNL1       -0.0017
     16 C         137.9403  143.0892  162.3273 C.ar    1  UNL1        0.0007
     17 C         137.7001  144.0629  163.4427 C.ar    1  UNL1        0.0122
     18 C         138.6511  144.1261  164.6010 C.ar    1  UNL1        0.0679
     19 CL        138.4107  145.0999  165.7165 Cl      1  UNL1       -0.0814
     20 C         139.8423  143.2156  164.6439 C.ar    1  UNL1        0.0658
     21 CL        140.7933  143.2788  165.8022 Cl      1  UNL1       -0.0816
@<TRIPOS>BOND
     1    10    11    1
     2    11    12    1
     3    11     1    1
     4     1     2    2
     5     1     3   am
     6     3    13    1
     7    13    14    1
     8    14    15   ar
     9    15    16   ar
    10    16    17   ar
    11    17    18   ar
    12    18    19    1
    13    18    20   ar
    14    20    21    1
    15     4     3    1
    16     4     5    1
    17     5     6    1
    18     6     7    1
    19     7     8    1
    20    20    14   ar
    21     8     4    1
    22     7     9    1
@<TRIPOS>MOLECULE
*****
 21 22 0 0 0
SMALL
GASTEIGER

@<TRIPOS>ATOM
      1 C         140.2859  139.9788  168.2519 C.2     1  UNL1        0.2254
      2 O         139.0490  139.9307  169.0991 O.2     1  UNL1       -0.2749
      3 N         140.2067  139.6529  166.7899 N.am    1  UNL1       -0.2756
      4 C         141.4437  139.7010  165.9427 C.3     1  UNL1        0.0927
      5 C         142.3673  138.5521  165.6651 C.3     1  UNL1        0.0383
      6 C         143.4686  139.0475  164.7752 C.3     1  UNL1        0.0704
      7 N         143.2256  140.5025  164.5029 N.3     1  UNL1       -0.2960
      8 C         141.9741  140.9063  165.2245 C.3     1  UNL1        0.0887
      9 H         143.1110  140.6526  163.5006 H       1  UNL1        0.1233
     10 C         142.4677  139.2960  169.4864 C.3     1  UNL1        0.0096
     11 C         141.6020  140.3528  168.8668 C.3     1  UNL1        0.0767
     12 C         142.0525  141.7835  168.8620 C.3     1  UNL1        0.0096
     13 C         138.8906  139.2789  166.1751 C.3     1  UNL1        0.1210
     14 C         138.4760  139.8822  164.8658 C.ar    1  UNL1        0.0091
     15 C         138.0516  141.3196  164.8033 C.ar    1  UNL1       -0.0017
     16 C         137.6369  141.9229  163.4942 C.ar    1  UNL1        0.0007
     17 C         137.6467  141.0890  162.2475 C.ar    1  UNL1        0.0122
     18 C         138.0711  139.6516  162.3099 C.ar    1  UNL1        0.0679
     19 CL        138.0809  138.8176  161.0631 Cl      1  UNL1       -0.0814
     20 C         138.4858  139.0482  163.6191 C.ar    1  UNL1        0.0658
     21 CL        138.9102  137.6109  163.6816 Cl      1  UNL1       -0.0816
@<TRIPOS>BOND
     1    10    11    1
     2    11    12    1
     3    11     1    1
     4     1     2    2
     5     1     3   am
     6     3    13    1
     7    13    14    1
     8    14    15   ar
     9    15    16   ar
    10    16    17   ar
    11    17    18   ar
    12    18    19    1
    13    18    20   ar
    14    20    21    1
    15     4     3    1
    16     4     5    1
    17     5     6    1
    18     6     7    1
    19     7     8    1
    20    20    14   ar
    21     8     4    1
    22     7     9    1
@<TRIPOS>MOLECULE
*****
 21 22 0 0 0
SMALL
GASTEIGER

@<TRIPOS>ATOM
      1 C         139.8139  140.1455  166.5081 C.2     1  UNL1        0.2254
      2 O         140.6693  140.1532  167.7402 O.2     1  UNL1       -0.2749
      3 N         139.7057  141.3796  165.6625 N.am    1  UNL1       -0.2756
      4 C         138.8503  141.3719  164.4303 C.3     1  UNL1        0.0927
      5 C         139.3087  141.0409  163.0409 C.3     1  UNL1        0.0383
      6 C         138.1280  141.1581  162.1230 C.3     1  UNL1        0.0704
      7 N         136.9400  141.5616  162.9452 N.3     1  UNL1       -0.2960
      8 C         137.3864  141.6937  164.3711 C.3     1  UNL1        0.0887
      9 H         136.2125  140.8501  162.8748 H       1  UNL1        0.1233
     10 C         139.6315  137.9815  165.0819 C.3     1  UNL1        0.0096
     11 C         139.0668  138.9035  166.1215 C.3     1  UNL1        0.0767
     12 C         137.7549  138.5836  166.7746 C.3     1  UNL1        0.0096
     13 C         140.4528  142.6215  166.0490 C.3     1  UNL1        0.1210
     14 C         141.5035  143.1797  165.1353 C.ar    1  UNL1        0.0091
     15 C         141.1913  144.3627  164.2676 C.ar    1  UNL1       -0.0017
     16 C         142.2419  144.9208  163.3540 C.ar    1  UNL1        0.0007
     17 C         143.6047  144.2960  163.3082 C.ar    1  UNL1        0.0122
     18 C         143.9169  143.1129  164.1759 C.ar    1  UNL1        0.0679
     19 CL        145.2799  142.4880  164.1300 Cl      1  UNL1       -0.0814
     20 C         142.8663  142.5548  165.0895 C.ar    1  UNL1        0.0658
     21 CL        143.1786  141.3717  165.9572 Cl      1  UNL1       -0.0816
@<TRIPOS>BOND
     1    10    11    1
     2    11    12    1
     3    11     1    1
     4     1     2    2
     5     1     3   am
     6     3    13    1
     7    13    14    1
     8    14    15   ar
     9    15    16   ar
    10    16    17   ar
    11    17    18   ar
    12    18    19    1
    13    18    20   ar
    14    20    21    1
    15     4     3    1
    16     4     5    1
    17     5     6    1
    18     6     7    1
    19     7     8    1
    20    20    14   ar
    21     8     4    1
    22     7     9    1
