@<TRIPOS>MOLECULE
*****
 31 34 0 0 0
SMALL
GASTEIGER

@<TRIPOS>ATOM
      1 C         138.6946  139.3867  165.7314 C.ar    1  UNL1        0.0895
      2 C         137.8022  138.6649  166.6970 C.ar    1  UNL1        0.1062
      3 N         137.9281  138.9209  168.1697 N.ar    1  UNL1       -0.2271
      4 C         138.9464  139.8986  168.6766 C.ar    1  UNL1        0.1558
      5 C         139.8388  140.6204  167.7109 C.ar    1  UNL1        0.0529
      6 C         139.7129  140.3645  166.2383 C.ar    1  UNL1        0.0793
      7 C         138.5688  139.1308  164.2587 C.2     1  UNL1        0.2676
      8 O         137.8412  140.1106  163.3867 O.2     1  UNL1       -0.2683
      9 C         140.3283  138.0085  162.7114 C.3     1  UNL1        0.1388
     10 N         139.1705  137.8950  163.6581 N.am    1  UNL1       -0.1997
     11 N         139.0723  140.1546  170.1493 N.am    1  UNL1       -0.1603
     12 C         140.4020  140.5274  170.7347 C.2     1  UNL1        0.2464
     13 O         140.4770  141.5320  171.8462 O.2     1  UNL1       -0.2730
     14 C         141.6567  139.8957  170.2088 C.3     1  UNL1        0.0786
     15 C         142.5813  138.7176  170.1248 C.3     1  UNL1        0.0096
     16 C         142.9054  139.9798  169.3819 C.3     1  UNL1        0.0096
     17 N         140.6054  141.0864  165.2726 N.pl3   1  UNL1       -0.2091
     18 C         140.1597  142.3835  164.6654 C.ar    1  UNL1        0.1044
     19 C         139.5315  143.4384  165.5271 C.ar    1  UNL1        0.0196
     20 C         139.0858  144.7355  164.9198 C.ar    1  UNL1        0.0016
     21 C         139.2683  144.9778  163.4508 C.ar    1  UNL1        0.0062
     22 C         139.8965  143.9229  162.5890 C.ar    1  UNL1        0.0727
     23 C         140.3422  142.6257  163.1963 C.ar    1  UNL1        0.1567
     24 C         140.0790  144.1651  161.1200 C.ar    1  UNL1        0.1862
     25 N         139.2731  143.5448  160.0174 N.ar    1  UNL1       -0.2033
     26 C         139.7955  144.0664  158.7116 C.ar    1  UNL1        0.1972
     27 N         140.9241  145.0092  159.0073 N.ar    1  UNL1       -0.2281
     28 C         141.7352  145.7593  157.9926 C.3     1  UNL1        0.1556
     29 N         141.0993  145.0701  160.4958 N.ar    1  UNL1       -0.1483
     30 O         140.9703  141.5708  162.3346 O.3     1  UNL1       -0.4700
     31 C         142.4625  141.5064  162.1957 C.3     1  UNL1        0.2525
@<TRIPOS>BOND
     1     9    10    1
     2    10     7   am
     3     7     8    2
     4     7     1    1
     5     1     2   ar
     6     2     3   ar
     7     3     4   ar
     8     4    11    1
     9    11    12   am
    10    12    13    2
    11    12    14    1
    12    14    15    1
    13    15    16    1
    14     4     5   ar
    15     5     6   ar
    16     6    17    1
    17    17    18    1
    18    18    19   ar
    19    19    20   ar
    20    20    21   ar
    21    21    22   ar
    22    22    24    1
    23    24    25   ar
    24    25    26   ar
    25    26    27   ar
    26    27    28    1
    27    27    29   ar
    28    22    23   ar
    29    23    30    1
    30    30    31    1
    31     6     1   ar
    32    23    18   ar
    33    16    14    1
    34    29    24   ar
@<TRIPOS>MOLECULE
*****
 31 34 0 0 0
SMALL
GASTEIGER

@<TRIPOS>ATOM
      1 C         143.1771  140.1086  165.9652 C.ar    1  UNL1        0.0895
      2 C         143.2207  138.9213  166.8808 C.ar    1  UNL1        0.1062
      3 N         142.9549  139.0945  168.3468 N.ar    1  UNL1       -0.2271
      4 C         142.6455  140.4550  168.8974 C.ar    1  UNL1        0.1558
      5 C         142.6018  141.6423  167.9818 C.ar    1  UNL1        0.0529
      6 C         142.8676  141.4691  166.5157 C.ar    1  UNL1        0.0793
      7 C         143.4429  139.9354  164.4992 C.2     1  UNL1        0.2676
      8 O         142.2978  139.7864  163.5418 O.2     1  UNL1       -0.2683
      9 C         145.6036  141.1959  163.7975 C.3     1  UNL1        0.1388
     10 N         144.8537  139.9112  163.9904 N.am    1  UNL1       -0.1997
     11 N         142.3797  140.6282  170.3634 N.am    1  UNL1       -0.1603
     12 C         141.0132  141.0273  170.8359 C.2     1  UNL1        0.2464
     13 O         140.8638  141.9085  172.0406 O.2     1  UNL1       -0.2730
     14 C         139.7960  140.5454  170.1037 C.3     1  UNL1        0.0786
     15 C         138.3461  140.1610  170.1058 C.3     1  UNL1        0.0096
     16 C         139.1377  140.0949  168.8334 C.3     1  UNL1        0.0096
     17 N         142.8239  142.6566  165.6002 N.pl3   1  UNL1       -0.2091
     18 C         141.5277  143.0689  164.9680 C.ar    1  UNL1        0.1044
     19 C         140.3137  143.2887  165.8212 C.ar    1  UNL1        0.0196
     20 C         139.0174  143.7011  165.1890 C.ar    1  UNL1        0.0016
     21 C         138.9351  143.8937  163.7037 C.ar    1  UNL1        0.0062
     22 C         140.1492  143.6739  162.8506 C.ar    1  UNL1        0.0727
     23 C         141.4454  143.2615  163.4827 C.ar    1  UNL1        0.1567
     24 C         140.0669  143.8665  161.3653 C.ar    1  UNL1        0.1862
     25 N         139.4763  142.8997  160.3822 N.ar    1  UNL1       -0.2033
     26 C         139.6052  143.4953  159.0116 C.ar    1  UNL1        0.1972
     27 N         140.2756  144.8303  159.1476 N.ar    1  UNL1       -0.2281
     28 C         140.6031  145.7708  158.0259 C.3     1  UNL1        0.1556
     29 N         140.5609  145.0597  160.6023 N.ar    1  UNL1       -0.1483
     30 O         142.6594  143.0417  162.6295 O.3     1  UNL1       -0.4700
     31 C         143.6610  144.1441  162.4521 C.3     1  UNL1        0.2525
@<TRIPOS>BOND
     1     9    10    1
     2    10     7   am
     3     7     8    2
     4     7     1    1
     5     1     2   ar
     6     2     3   ar
     7     3     4   ar
     8     4    11    1
     9    11    12   am
    10    12    13    2
    11    12    14    1
    12    14    15    1
    13    15    16    1
    14     4     5   ar
    15     5     6   ar
    16     6    17    1
    17    17    18    1
    18    18    19   ar
    19    19    20   ar
    20    20    21   ar
    21    21    22   ar
    22    22    24    1
    23    24    25   ar
    24    25    26   ar
    25    26    27   ar
    26    27    28    1
    27    27    29   ar
    28    22    23   ar
    29    23    30    1
    30    30    31    1
    31     6     1   ar
    32    23    18   ar
    33    16    14    1
    34    29    24   ar
@<TRIPOS>MOLECULE
*****
 31 34 0 0 0
SMALL
GASTEIGER

@<TRIPOS>ATOM
      1 C         139.7989  138.3555  164.6451 C.ar    1  UNL1        0.0895
      2 C         138.5197  137.9694  165.3266 C.ar    1  UNL1        0.1062
      3 N         138.2035  138.5096  166.6898 N.ar    1  UNL1       -0.2271
      4 C         139.1665  139.4358  167.3715 C.ar    1  UNL1        0.1558
      5 C         140.4457  139.8219  166.6899 C.ar    1  UNL1        0.0529
      6 C         140.7619  139.2817  165.3267 C.ar    1  UNL1        0.0793
      7 C         140.1151  137.8154  163.2819 C.2     1  UNL1        0.2676
      8 O         141.1071  136.7009  163.1283 O.2     1  UNL1       -0.2683
      9 C         137.9760  138.1494  161.8456 C.3     1  UNL1        0.1388
     10 N         139.4392  138.3898  162.0723 N.am    1  UNL1       -0.1997
     11 N         138.8503  139.9759  168.7347 N.am    1  UNL1       -0.1603
     12 C         139.9607  140.4017  169.6488 C.2     1  UNL1        0.2464
     13 O         140.7123  139.3758  170.4444 O.2     1  UNL1       -0.2730
     14 C         140.3196  141.8533  169.7674 C.3     1  UNL1        0.0786
     15 C         140.0061  143.2322  170.2674 C.3     1  UNL1        0.0096
     16 C         141.2548  142.9884  169.4727 C.3     1  UNL1        0.0096
     17 N         142.0412  139.6679  164.6452 N.pl3   1  UNL1       -0.2091
     18 C         142.4244  141.1137  164.5330 C.ar    1  UNL1        0.1044
     19 C         143.5310  141.6645  165.3828 C.ar    1  UNL1        0.0196
     20 C         143.9142  143.1104  165.2705 C.ar    1  UNL1        0.0016
     21 C         143.1908  144.0055  164.3085 C.ar    1  UNL1        0.0062
     22 C         142.0842  143.4547  163.4587 C.ar    1  UNL1        0.0727
     23 C         141.7010  142.0089  163.5709 C.ar    1  UNL1        0.1567
     24 C         141.3609  144.3498  162.4967 C.ar    1  UNL1        0.1862
     25 N         140.4157  145.4559  162.8618 N.ar    1  UNL1       -0.2033
     26 C         139.9263  146.0857  161.5914 C.ar    1  UNL1        0.1972
     27 N         140.5691  145.3688  160.4412 N.ar    1  UNL1       -0.2281
     28 C         140.3617  145.6716  158.9868 C.3     1  UNL1        0.1556
     29 N         141.4557  144.2960  161.0007 N.ar    1  UNL1       -0.1483
     30 O         140.5944  141.4582  162.7211 O.3     1  UNL1       -0.4700
     31 C         139.1644  141.7312  163.0824 C.3     1  UNL1        0.2525
@<TRIPOS>BOND
     1     9    10    1
     2    10     7   am
     3     7     8    2
     4     7     1    1
     5     1     2   ar
     6     2     3   ar
     7     3     4   ar
     8     4    11    1
     9    11    12   am
    10    12    13    2
    11    12    14    1
    12    14    15    1
    13    15    16    1
    14     4     5   ar
    15     5     6   ar
    16     6    17    1
    17    17    18    1
    18    18    19   ar
    19    19    20   ar
    20    20    21   ar
    21    21    22   ar
    22    22    24    1
    23    24    25   ar
    24    25    26   ar
    25    26    27   ar
    26    27    28    1
    27    27    29   ar
    28    22    23   ar
    29    23    30    1
    30    30    31    1
    31     6     1   ar
    32    23    18   ar
    33    16    14    1
    34    29    24   ar
@<TRIPOS>MOLECULE
*****
 31 34 0 0 0
SMALL
GASTEIGER

@<TRIPOS>ATOM
      1 C         140.1196  139.6262  161.5213 C.ar    1  UNL1        0.0895
      2 C         138.6962  139.7544  161.0659 C.ar    1  UNL1        0.1062
      3 N         137.9752  141.0610  161.2169 N.ar    1  UNL1       -0.2271
      4 C         138.6776  142.2395  161.8233 C.ar    1  UNL1        0.1558
      5 C         140.1010  142.1113  162.2787 C.ar    1  UNL1        0.0529
      6 C         140.8220  140.8046  162.1277 C.ar    1  UNL1        0.0793
      7 C         140.8406  138.3195  161.3702 C.2     1  UNL1        0.2676
      8 O         140.5574  137.1926  162.3189 O.2     1  UNL1       -0.2683
      9 C         143.2484  137.7238  160.5973 C.3     1  UNL1        0.1388
     10 N         141.8448  138.1397  160.2706 N.am    1  UNL1       -0.1997
     11 N         137.9566  143.5461  161.9743 N.am    1  UNL1       -0.1603
     12 C         138.6093  144.6830  162.7033 C.2     1  UNL1        0.2464
     13 O         139.0399  145.9075  161.9514 O.2     1  UNL1       -0.2730
     14 C         138.8314  144.5955  164.1842 C.3     1  UNL1        0.0786
     15 C         139.6211  144.0810  165.3511 C.3     1  UNL1        0.0096
     16 C         138.4265  144.9583  165.5822 C.3     1  UNL1        0.0096
     17 N         142.2455  140.6765  162.5831 N.pl3   1  UNL1       -0.2091
     18 C         142.6918  141.3486  163.8476 C.ar    1  UNL1        0.1044
     19 C         143.4815  142.6221  163.7817 C.ar    1  UNL1        0.0196
     20 C         143.9278  143.2943  165.0463 C.ar    1  UNL1        0.0016
     21 C         143.5843  142.6929  166.3768 C.ar    1  UNL1        0.0062
     22 C         142.7945  141.4193  166.4427 C.ar    1  UNL1        0.0727
     23 C         142.3482  140.7472  165.1782 C.ar    1  UNL1        0.1567
     24 C         142.4510  140.8179  167.7732 C.ar    1  UNL1        0.1862
     25 N         142.9942  139.5341  168.3272 N.ar    1  UNL1       -0.2033
     26 C         142.3829  139.3174  169.6797 C.ar    1  UNL1        0.1972
     27 N         141.4619  140.4674  169.9617 N.ar    1  UNL1       -0.2281
     28 C         140.6426  140.6568  171.2039 C.3     1  UNL1        0.1556
     29 N         141.5040  141.3947  168.7834 N.ar    1  UNL1       -0.1483
     30 O         141.5585  139.4737  165.2442 O.3     1  UNL1       -0.4700
     31 C         142.2598  138.1508  165.1555 C.3     1  UNL1        0.2525
@<TRIPOS>BOND
     1     9    10    1
     2    10     7   am
     3     7     8    2
     4     7     1    1
     5     1     2   ar
     6     2     3   ar
     7     3     4   ar
     8     4    11    1
     9    11    12   am
    10    12    13    2
    11    12    14    1
    12    14    15    1
    13    15    16    1
    14     4     5   ar
    15     5     6   ar
    16     6    17    1
    17    17    18    1
    18    18    19   ar
    19    19    20   ar
    20    20    21   ar
    21    21    22   ar
    22    22    24    1
    23    24    25   ar
    24    25    26   ar
    25    26    27   ar
    26    27    28    1
    27    27    29   ar
    28    22    23   ar
    29    23    30    1
    30    30    31    1
    31     6     1   ar
    32    23    18   ar
    33    16    14    1
    34    29    24   ar
@<TRIPOS>MOLECULE
*****
 31 34 0 0 0
SMALL
GASTEIGER

@<TRIPOS>ATOM
      1 C         138.8710  139.5363  164.7618 C.ar    1  UNL1        0.0895
      2 C         138.0687  138.8153  165.8040 C.ar    1  UNL1        0.1062
      3 N         138.4264  138.9530  167.2542 N.ar    1  UNL1       -0.2271
      4 C         139.5866  139.8118  167.6621 C.ar    1  UNL1        0.1558
      5 C         140.3890  140.5328  166.6199 C.ar    1  UNL1        0.0529
      6 C         140.0312  140.3951  165.1697 C.ar    1  UNL1        0.0793
      7 C         138.5132  139.3986  163.3116 C.2     1  UNL1        0.2676
      8 O         137.5954  140.3949  162.6676 O.2     1  UNL1       -0.2683
      9 C         140.2358  137.4742  163.0291 C.3     1  UNL1        0.1388
     10 N         139.0733  138.2645  162.5053 N.am    1  UNL1       -0.1997
     11 N         139.9444  139.9495  169.1123 N.am    1  UNL1       -0.1603
     12 C         139.4796  141.1455  169.8891 C.2     1  UNL1        0.2464
     13 O         138.1972  141.0840  170.6648 O.2     1  UNL1       -0.2730
     14 C         140.2972  142.4031  169.8903 C.3     1  UNL1        0.0786
     15 C         141.6329  143.0841  169.9356 C.3     1  UNL1        0.0096
     16 C         140.3776  143.9003  169.8472 C.3     1  UNL1        0.0096
     17 N         140.8337  141.1161  164.1275 N.pl3   1  UNL1       -0.2091
     18 C         140.3767  142.4517  163.6203 C.ar    1  UNL1        0.1044
     19 C         139.6602  143.3975  164.5380 C.ar    1  UNL1        0.0196
     20 C         139.2033  144.7331  164.0307 C.ar    1  UNL1        0.0016
     21 C         139.4628  145.1230  162.6058 C.ar    1  UNL1        0.0062
     22 C         140.1793  144.1773  161.6880 C.ar    1  UNL1        0.0727
     23 C         140.6363  142.8417  162.1952 C.ar    1  UNL1        0.1567
     24 C         140.4389  144.5672  160.2631 C.ar    1  UNL1        0.1862
     25 N         141.6055  145.3690  159.7668 N.ar    1  UNL1       -0.2033
     26 C         141.4651  145.5211  158.2812 C.ar    1  UNL1        0.1972
     27 N         140.2116  144.8133  157.8593 N.ar    1  UNL1       -0.2281
     28 C         139.6848  144.7128  156.4584 C.3     1  UNL1        0.1556
     29 N         139.5774  144.2238  159.0841 N.ar    1  UNL1       -0.1483
     30 O         141.3528  141.8960  161.2775 O.3     1  UNL1       -0.4700
     31 C         140.5739  140.9028  160.4670 C.3     1  UNL1        0.2525
@<TRIPOS>BOND
     1     9    10    1
     2    10     7   am
     3     7     8    2
     4     7     1    1
     5     1     2   ar
     6     2     3   ar
     7     3     4   ar
     8     4    11    1
     9    11    12   am
    10    12    13    2
    11    12    14    1
    12    14    15    1
    13    15    16    1
    14     4     5   ar
    15     5     6   ar
    16     6    17    1
    17    17    18    1
    18    18    19   ar
    19    19    20   ar
    20    20    21   ar
    21    21    22   ar
    22    22    24    1
    23    24    25   ar
    24    25    26   ar
    25    26    27   ar
    26    27    28    1
    27    27    29   ar
    28    22    23   ar
    29    23    30    1
    30    30    31    1
    31     6     1   ar
    32    23    18   ar
    33    16    14    1
    34    29    24   ar
@<TRIPOS>MOLECULE
*****
 31 34 0 0 0
SMALL
GASTEIGER

@<TRIPOS>ATOM
      1 C         140.7863  140.1002  168.2808 C.ar    1  UNL1        0.0895
      2 C         142.0361  139.4899  168.8425 C.ar    1  UNL1        0.1062
      3 N         143.1242  139.0257  167.9202 N.ar    1  UNL1       -0.2271
      4 C         142.9624  139.1717  166.4362 C.ar    1  UNL1        0.1558
      5 C         141.7126  139.7820  165.8744 C.ar    1  UNL1        0.0529
      6 C         140.6246  140.2462  166.7967 C.ar    1  UNL1        0.0793
      7 C         139.6983  140.5644  169.2031 C.2     1  UNL1        0.2676
      8 O         138.4303  139.7725  169.3256 O.2     1  UNL1       -0.2683
      9 C         140.4148  143.0576  169.3459 C.3     1  UNL1        0.1388
     10 N         139.8782  141.8205  170.0029 N.am    1  UNL1       -0.1997
     11 N         144.0505  138.7075  165.5138 N.am    1  UNL1       -0.1603
     12 C         144.2508  139.3838  164.1900 C.2     1  UNL1        0.2464
     13 O         143.8927  138.6689  162.9208 O.2     1  UNL1       -0.2730
     14 C         144.8091  140.7749  164.1353 C.3     1  UNL1        0.0786
     15 C         145.8420  141.7414  163.6363 C.3     1  UNL1        0.0096
     16 C         144.7434  142.2179  164.5397 C.3     1  UNL1        0.0096
     17 N         139.3747  140.8565  166.2349 N.pl3   1  UNL1       -0.2091
     18 C         139.4671  142.0054  165.2751 C.ar    1  UNL1        0.1044
     19 C         139.5805  143.4084  165.7934 C.ar    1  UNL1        0.0196
     20 C         139.6728  144.5574  164.8335 C.ar    1  UNL1        0.0016
     21 C         139.6517  144.3034  163.3554 C.ar    1  UNL1        0.0062
     22 C         139.5382  142.9004  162.8370 C.ar    1  UNL1        0.0727
     23 C         139.4459  141.7514  163.7969 C.ar    1  UNL1        0.1567
     24 C         139.5171  142.6463  161.3589 C.ar    1  UNL1        0.1862
     25 N         140.6394  142.0706  160.5471 N.ar    1  UNL1       -0.2033
     26 C         140.1859  141.9918  159.1195 C.ar    1  UNL1        0.1972
     27 N         138.7832  142.5189  159.0490 N.ar    1  UNL1       -0.2281
     28 C         137.9417  142.6231  157.8117 C.3     1  UNL1        0.1556
     29 N         138.3699  142.9234  160.4330 N.ar    1  UNL1       -0.1483
     30 O         139.3324  140.3484  163.2785 O.3     1  UNL1       -0.4700
     31 C         137.9849  139.7762  162.9518 C.3     1  UNL1        0.2525
@<TRIPOS>BOND
     1     9    10    1
     2    10     7   am
     3     7     8    2
     4     7     1    1
     5     1     2   ar
     6     2     3   ar
     7     3     4   ar
     8     4    11    1
     9    11    12   am
    10    12    13    2
    11    12    14    1
    12    14    15    1
    13    15    16    1
    14     4     5   ar
    15     5     6   ar
    16     6    17    1
    17    17    18    1
    18    18    19   ar
    19    19    20   ar
    20    20    21   ar
    21    21    22   ar
    22    22    24    1
    23    24    25   ar
    24    25    26   ar
    25    26    27   ar
    26    27    28    1
    27    27    29   ar
    28    22    23   ar
    29    23    30    1
    30    30    31    1
    31     6     1   ar
    32    23    18   ar
    33    16    14    1
    34    29    24   ar
@<TRIPOS>MOLECULE
*****
 31 34 0 0 0
SMALL
GASTEIGER

@<TRIPOS>ATOM
      1 C         140.6879  140.0629  168.7227 C.ar    1  UNL1        0.0895
      2 C         142.0004  139.5534  169.2400 C.ar    1  UNL1        0.1062
      3 N         143.0534  139.0838  168.2804 N.ar    1  UNL1       -0.2271
      4 C         142.7939  139.1238  166.8036 C.ar    1  UNL1        0.1558
      5 C         141.4813  139.6333  166.2864 C.ar    1  UNL1        0.0529
      6 C         140.4283  140.1029  167.2459 C.ar    1  UNL1        0.0793
      7 C         139.6349  140.5324  169.6823 C.2     1  UNL1        0.2676
      8 O         138.4091  139.7004  169.9167 O.2     1  UNL1       -0.2683
      9 C         140.3802  143.0213  169.6914 C.3     1  UNL1        0.1388
     10 N         139.8077  141.8340  170.4075 N.am    1  UNL1       -0.1997
     11 N         143.8468  138.6543  165.8441 N.am    1  UNL1       -0.1603
     12 C         143.8512  139.1565  164.4307 C.2     1  UNL1        0.2464
     13 O         143.1965  138.3521  163.3469 O.2     1  UNL1       -0.2730
     14 C         144.5101  140.4630  164.1010 C.3     1  UNL1        0.0786
     15 C         144.4092  141.8983  163.6773 C.3     1  UNL1        0.0096
     16 C         145.7524  141.2906  163.9536 C.3     1  UNL1        0.0096
     17 N         139.1157  140.6124  166.7286 N.pl3   1  UNL1       -0.2091
     18 C         138.8903  140.7395  165.2511 C.ar    1  UNL1        0.1044
     19 C         138.2680  139.6084  164.4874 C.ar    1  UNL1        0.0196
     20 C         138.0426  139.7356  163.0098 C.ar    1  UNL1        0.0016
     21 C         138.4394  140.9938  162.2961 C.ar    1  UNL1        0.0062
     22 C         139.0616  142.1249  163.0599 C.ar    1  UNL1        0.0727
     23 C         139.2871  141.9978  164.5374 C.ar    1  UNL1        0.1567
     24 C         139.4584  143.3831  162.3462 C.ar    1  UNL1        0.1862
     25 N         139.1188  144.7815  162.7696 N.ar    1  UNL1       -0.2033
     26 C         139.7150  145.7265  161.7689 C.ar    1  UNL1        0.1972
     27 N         140.4232  144.9122  160.7270 N.ar    1  UNL1       -0.2281
     28 C         141.1605  145.4514  159.5373 C.3     1  UNL1        0.1556
     29 N         140.2646  143.4639  161.0839 N.ar    1  UNL1       -0.1483
     30 O         139.9094  143.1289  165.3012 O.3     1  UNL1       -0.4700
     31 C         141.4017  143.2228  165.4191 C.3     1  UNL1        0.2525
@<TRIPOS>BOND
     1     9    10    1
     2    10     7   am
     3     7     8    2
     4     7     1    1
     5     1     2   ar
     6     2     3   ar
     7     3     4   ar
     8     4    11    1
     9    11    12   am
    10    12    13    2
    11    12    14    1
    12    14    15    1
    13    15    16    1
    14     4     5   ar
    15     5     6   ar
    16     6    17    1
    17    17    18    1
    18    18    19   ar
    19    19    20   ar
    20    20    21   ar
    21    21    22   ar
    22    22    24    1
    23    24    25   ar
    24    25    26   ar
    25    26    27   ar
    26    27    28    1
    27    27    29   ar
    28    22    23   ar
    29    23    30    1
    30    30    31    1
    31     6     1   ar
    32    23    18   ar
    33    16    14    1
    34    29    24   ar
@<TRIPOS>MOLECULE
*****
 31 34 0 0 0
SMALL
GASTEIGER

@<TRIPOS>ATOM
      1 C         140.2265  141.8252  168.4983 C.ar    1  UNL1        0.0895
      2 C         139.5721  140.6309  169.1270 C.ar    1  UNL1        0.1062
      3 N         138.9924  139.5512  168.2620 N.ar    1  UNL1       -0.2271
      4 C         139.0673  139.6657  166.7683 C.ar    1  UNL1        0.1558
      5 C         139.7218  140.8600  166.1396 C.ar    1  UNL1        0.0529
      6 C         140.3014  141.9397  167.0046 C.ar    1  UNL1        0.0793
      7 C         140.8062  142.9049  169.3633 C.2     1  UNL1        0.2676
      8 O         140.0589  144.1906  169.5597 O.2     1  UNL1       -0.2683
      9 C         143.2496  142.0251  169.2909 C.3     1  UNL1        0.1388
     10 N         142.1330  142.6990  170.0319 N.am    1  UNL1       -0.1997
     11 N         138.4877  138.5860  165.9033 N.am    1  UNL1       -0.1603
     12 C         138.8680  138.5003  164.4549 C.2     1  UNL1        0.2464
     13 O         138.0110  139.1580  163.4142 O.2     1  UNL1       -0.2730
     14 C         140.1053  137.7568  164.0471 C.3     1  UNL1        0.0786
     15 C         141.0780  137.3373  162.9851 C.3     1  UNL1        0.0096
     16 C         141.2757  136.8887  164.4027 C.3     1  UNL1        0.0096
     17 N         140.9559  143.1340  166.3758 N.pl3   1  UNL1       -0.2091
     18 C         141.9975  142.9457  165.3130 C.ar    1  UNL1        0.1044
     19 C         143.3968  142.5622  165.6937 C.ar    1  UNL1        0.0196
     20 C         144.4383  142.3739  164.6308 C.ar    1  UNL1        0.0016
     21 C         144.0806  142.5689  163.1873 C.ar    1  UNL1        0.0062
     22 C         142.6813  142.9524  162.8065 C.ar    1  UNL1        0.0727
     23 C         141.6398  143.1407  163.8693 C.ar    1  UNL1        0.1567
     24 C         142.3236  143.1474  161.3629 C.ar    1  UNL1        0.1862
     25 N         141.7998  142.0925  160.4340 N.ar    1  UNL1       -0.2033
     26 C         141.5793  142.7247  159.0918 C.ar    1  UNL1        0.1972
     27 N         141.9669  144.1705  159.1912 N.ar    1  UNL1       -0.2281
     28 C         141.9052  145.1780  158.0816 C.3     1  UNL1        0.1556
     29 N         142.4268  144.4316  160.5948 N.ar    1  UNL1       -0.1483
     30 O         140.2405  143.5242  163.4886 O.3     1  UNL1       -0.4700
     31 C         139.8840  144.9687  163.2985 C.3     1  UNL1        0.2525
@<TRIPOS>BOND
     1     9    10    1
     2    10     7   am
     3     7     8    2
     4     7     1    1
     5     1     2   ar
     6     2     3   ar
     7     3     4   ar
     8     4    11    1
     9    11    12   am
    10    12    13    2
    11    12    14    1
    12    14    15    1
    13    15    16    1
    14     4     5   ar
    15     5     6   ar
    16     6    17    1
    17    17    18    1
    18    18    19   ar
    19    19    20   ar
    20    20    21   ar
    21    21    22   ar
    22    22    24    1
    23    24    25   ar
    24    25    26   ar
    25    26    27   ar
    26    27    28    1
    27    27    29   ar
    28    22    23   ar
    29    23    30    1
    30    30    31    1
    31     6     1   ar
    32    23    18   ar
    33    16    14    1
    34    29    24   ar
@<TRIPOS>MOLECULE
*****
 31 34 0 0 0
SMALL
GASTEIGER

@<TRIPOS>ATOM
      1 C         138.7192  139.6708  165.5390 C.ar    1  UNL1        0.0895
      2 C         137.9202  138.9627  166.5926 C.ar    1  UNL1        0.1062
      3 N         138.2759  139.1268  168.0405 N.ar    1  UNL1       -0.2271
      4 C         139.4307  139.9992  168.4349 C.ar    1  UNL1        0.1558
      5 C         140.2297  140.7073  167.3813 C.ar    1  UNL1        0.0529
      6 C         139.8739  140.5431  165.9333 C.ar    1  UNL1        0.0793
      7 C         138.3634  139.5066  164.0911 C.2     1  UNL1        0.2676
      8 O         137.6243  140.5960  163.3722 O.2     1  UNL1       -0.2683
      9 C         139.9336  137.4552  163.8149 C.3     1  UNL1        0.1388
     10 N         138.7469  138.2531  163.3620 N.am    1  UNL1       -0.1997
     11 N         139.7864  140.1633  169.8828 N.am    1  UNL1       -0.1603
     12 C         140.3304  141.4706  170.3779 C.2     1  UNL1        0.2464
     13 O         139.4200  142.4558  171.0492 O.2     1  UNL1       -0.2730
     14 C         141.7847  141.7927  170.2016 C.3     1  UNL1        0.0786
     15 C         143.1914  141.3451  169.9353 C.3     1  UNL1        0.0096
     16 C         142.8971  142.7983  170.1628 C.3     1  UNL1        0.0096
     17 N         140.6730  141.2513  164.8797 N.pl3   1  UNL1       -0.2091
     18 C         141.8539  140.5727  164.2514 C.ar    1  UNL1        0.1044
     19 C         143.0156  140.1499  165.1009 C.ar    1  UNL1        0.0196
     20 C         144.1966  139.4712  164.4725 C.ar    1  UNL1        0.0016
     21 C         144.2157  139.2153  162.9946 C.ar    1  UNL1        0.0062
     22 C         143.0540  139.6380  162.1451 C.ar    1  UNL1        0.0727
     23 C         141.8731  140.3167  162.7735 C.ar    1  UNL1        0.1567
     24 C         143.0731  139.3821  160.6673 C.ar    1  UNL1        0.1862
     25 N         143.4753  140.3645  159.6074 N.ar    1  UNL1       -0.2033
     26 C         143.3442  139.6884  158.2749 C.ar    1  UNL1        0.1972
     27 N         142.8610  138.2881  158.5112 N.ar    1  UNL1       -0.2281
     28 C         142.5925  137.2580  157.4544 C.3     1  UNL1        0.1556
     29 N         142.6935  138.0988  159.9897 N.ar    1  UNL1       -0.1483
     30 O         140.7114  140.7394  161.9240 O.3     1  UNL1       -0.4700
     31 C         140.6435  142.1391  161.3889 C.3     1  UNL1        0.2525
@<TRIPOS>BOND
     1     9    10    1
     2    10     7   am
     3     7     8    2
     4     7     1    1
     5     1     2   ar
     6     2     3   ar
     7     3     4   ar
     8     4    11    1
     9    11    12   am
    10    12    13    2
    11    12    14    1
    12    14    15    1
    13    15    16    1
    14     4     5   ar
    15     5     6   ar
    16     6    17    1
    17    17    18    1
    18    18    19   ar
    19    19    20   ar
    20    20    21   ar
    21    21    22   ar
    22    22    24    1
    23    24    25   ar
    24    25    26   ar
    25    26    27   ar
    26    27    28    1
    27    27    29   ar
    28    22    23   ar
    29    23    30    1
    30    30    31    1
    31     6     1   ar
    32    23    18   ar
    33    16    14    1
    34    29    24   ar
