@<TRIPOS>MOLECULE
*****
 33 35 0 0 0
SMALL
GASTEIGER

@<TRIPOS>ATOM
      1 C         142.2223  140.2829  163.3348 C.3     1  UNL1        0.1017
      2 C         141.1660  140.0603  162.2934 C.3     1  UNL1        0.0394
      3 C         141.5588  139.8257  160.8648 C.3     1  UNL1        0.0740
      4 N         143.0079  139.8137  160.4777 N.3     1  UNL1       -0.2701
      5 C         144.0643  140.0363  161.5191 C.3     1  UNL1        0.1037
      6 C         143.6715  140.2709  162.9476 C.3     1  UNL1        0.1490
      7 C         141.9398  139.4052  165.7638 C.2     1  UNL1        0.2488
      8 O         142.4427  138.0585  165.3357 O.2     1  UNL1       -0.2700
      9 N         141.8296  140.5174  164.7633 N.am    1  UNL1       -0.2999
     10 H         141.4995  141.4014  165.0443 H       1  UNL1        0.1498
     11 C         140.1343  140.0143  167.5299 C.ar    1  UNL1        0.1443
     12 C         139.7416  140.2489  168.9584 C.ar    1  UNL1        0.0520
     13 C         140.7616  140.1091  170.0494 C.ar    1  UNL1        0.0553
     14 N         140.3688  140.3437  171.4779 N.pl3   1  UNL1       -0.3563
     15 C         142.1743  139.7346  169.7117 C.ar    1  UNL1        0.0709
     16 CL        143.1943  139.5948  170.8026 Cl      1  UNL1       -0.0810
     17 C         142.5670  139.5001  168.2832 C.ar    1  UNL1        0.0202
     18 C         141.5470  139.6399  167.1923 C.ar    1  UNL1        0.0882
     19 H         139.4416  140.5894  171.6995 H       1  UNL1        0.1424
     20 H         141.0382  140.2519  172.1939 H       1  UNL1        0.1424
     21 C         138.1768  139.0222  166.1393 C.3     1  UNL1        0.2525
     22 O         139.1143  140.1541  166.4390 O.3     1  UNL1       -0.4712
     23 O         144.7279  140.4934  163.9891 O.3     1  UNL1       -0.3505
     24 C         145.7750  141.5473  163.7820 C.3     1  UNL1        0.1741
     25 C         143.4007  139.5792  159.0492 C.3     1  UNL1        0.0818
     26 C         143.4642  140.7307  158.0901 C.3     1  UNL1        0.1026
     27 C         144.5802  141.7283  158.1887 C.2     1  UNL1        0.2270
     28 O         144.6284  142.6882  159.3403 O.2     1  UNL1       -0.2748
     29 N         145.6478  141.7658  157.1358 N.am    1  UNL1       -0.2795
     30 C         146.8191  142.7022  157.1008 C.3     1  UNL1        0.0935
     31 C         147.6268  142.3887  155.8763 C.3     1  UNL1        0.0233
     32 C         146.9547  141.2585  155.1545 C.3     1  UNL1        0.0233
     33 C         145.7316  140.8735  155.9329 C.3     1  UNL1        0.0935
@<TRIPOS>BOND
     1    21    22    1
     2    22    11    1
     3    11    12   ar
     4    12    13   ar
     5    13    14    1
     6    13    15   ar
     7    15    16    1
     8    15    17   ar
     9    17    18   ar
    10    18     7    1
    11     7     8    2
    12     7     9   am
    13     1     9    1
    14     1     2    1
    15     2     3    1
    16     3     4    1
    17     4    25    1
    18    25    26    1
    19    26    27    1
    20    27    28    2
    21    27    29   am
    22    29    30    1
    23    30    31    1
    24    31    32    1
    25    32    33    1
    26     4     5    1
    27     5     6    1
    28     6    23    1
    29    23    24    1
    30    18    11   ar
    31     6     1    1
    32    33    29    1
    33    14    19    1
    34    14    20    1
    35     9    10    1
@<TRIPOS>MOLECULE
*****
 33 35 0 0 0
SMALL
GASTEIGER

@<TRIPOS>ATOM
      1 C         140.4721  138.5975  162.9173 C.3     1  UNL1        0.1017
      2 C         139.0981  138.3088  162.3892 C.3     1  UNL1        0.0394
      3 C         138.8540  138.2802  160.9095 C.3     1  UNL1        0.0740
      4 N         139.9839  138.5402  159.9578 N.3     1  UNL1       -0.2701
      5 C         141.3579  138.8290  160.4858 C.3     1  UNL1        0.1037
      6 C         141.6020  138.8576  161.9655 C.3     1  UNL1        0.1490
      7 C         140.3865  139.8574  165.1878 C.2     1  UNL1        0.2488
      8 O         139.8127  141.0600  164.4990 O.2     1  UNL1       -0.2700
      9 N         140.7162  138.6262  164.3970 N.am    1  UNL1       -0.2999
     10 H         141.0928  137.8369  164.8491 H       1  UNL1        0.1498
     11 C         142.0175  139.6857  167.2029 C.ar    1  UNL1        0.1443
     12 C         142.2615  139.7143  168.6826 C.ar    1  UNL1        0.0520
     13 C         141.1188  139.9432  169.6270 C.ar    1  UNL1        0.0553
     14 N         141.3630  139.9718  171.1068 N.pl3   1  UNL1       -0.3563
     15 C         139.7320  140.1435  169.0916 C.ar    1  UNL1        0.0709
     16 CL        138.5893  140.3724  170.0360 Cl      1  UNL1       -0.0810
     17 C         139.4880  140.1149  167.6119 C.ar    1  UNL1        0.0202
     18 C         140.6307  139.8860  166.6676 C.ar    1  UNL1        0.0882
     19 H         142.2732  139.8404  171.4581 H       1  UNL1        0.1424
     20 H         140.6130  140.1221  171.7266 H       1  UNL1        0.1424
     21 C         143.8660  138.1334  166.2421 C.3     1  UNL1        0.2525
     22 O         143.1602  139.4568  166.2586 O.3     1  UNL1       -0.4712
     23 O         142.9760  139.1464  162.4936 O.3     1  UNL1       -0.3505
     24 C         143.3701  140.5543  162.8288 C.3     1  UNL1        0.1741
     25 C         139.7398  138.5116  158.4781 C.3     1  UNL1        0.0818
     26 C         140.8346  138.0854  157.5455 C.3     1  UNL1        0.1026
     27 C         140.5668  137.0417  156.5018 C.2     1  UNL1        0.2270
     28 O         139.2168  136.9586  155.8533 O.2     1  UNL1       -0.2748
     29 N         141.6490  136.0811  156.1068 N.am    1  UNL1       -0.2795
     30 C         141.5295  134.9902  155.0843 C.3     1  UNL1        0.0935
     31 C         142.8474  134.2776  155.0104 C.3     1  UNL1        0.0233
     32 C         143.7814  134.9282  155.9874 C.3     1  UNL1        0.0233
     33 C         143.0408  136.0428  156.6650 C.3     1  UNL1        0.0935
@<TRIPOS>BOND
     1    21    22    1
     2    22    11    1
     3    11    12   ar
     4    12    13   ar
     5    13    14    1
     6    13    15   ar
     7    15    16    1
     8    15    17   ar
     9    17    18   ar
    10    18     7    1
    11     7     8    2
    12     7     9   am
    13     1     9    1
    14     1     2    1
    15     2     3    1
    16     3     4    1
    17     4    25    1
    18    25    26    1
    19    26    27    1
    20    27    28    2
    21    27    29   am
    22    29    30    1
    23    30    31    1
    24    31    32    1
    25    32    33    1
    26     4     5    1
    27     5     6    1
    28     6    23    1
    29    23    24    1
    30    18    11   ar
    31     6     1    1
    32    33    29    1
    33    14    19    1
    34    14    20    1
    35     9    10    1
@<TRIPOS>MOLECULE
*****
 33 35 0 0 0
SMALL
GASTEIGER

@<TRIPOS>ATOM
      1 C         141.6845  138.3260  163.5633 C.3     1  UNL1        0.1017
      2 C         143.1150  138.3770  163.1152 C.3     1  UNL1        0.0394
      3 C         143.4494  138.2541  161.6580 C.3     1  UNL1        0.0740
      4 N         142.3531  138.0803  160.6491 N.3     1  UNL1       -0.2701
      5 C         140.9225  138.0293  161.0972 C.3     1  UNL1        0.1037
      6 C         140.5882  138.1522  162.5543 C.3     1  UNL1        0.1490
      7 C         141.6352  139.7281  165.7500 C.2     1  UNL1        0.2488
      8 O         142.2546  140.8844  165.0226 O.2     1  UNL1       -0.2700
      9 N         141.3501  138.4489  165.0203 N.am    1  UNL1       -0.2999
     10 H         140.9435  137.6900  165.4978 H       1  UNL1        0.1498
     11 C         139.8733  140.0143  167.6378 C.ar    1  UNL1        0.1443
     12 C         139.5390  140.1371  169.0949 C.ar    1  UNL1        0.0520
     13 C         140.6321  140.0966  170.1212 C.ar    1  UNL1        0.0553
     14 N         140.2977  140.2195  171.5784 N.pl3   1  UNL1       -0.3563
     15 C         142.0596  139.9333  169.6905 C.ar    1  UNL1        0.0709
     16 CL        143.1528  139.8929  170.7169 Cl      1  UNL1       -0.0810
     17 C         142.3939  139.8105  168.2335 C.ar    1  UNL1        0.0202
     18 C         141.3008  139.8510  167.2071 C.ar    1  UNL1        0.0882
     19 H         139.3608  140.3267  171.8611 H       1  UNL1        0.1424
     20 H         141.0152  140.1929  172.2520 H       1  UNL1        0.1424
     21 C         137.9696  138.8244  166.3301 C.3     1  UNL1        0.2525
     22 O         138.7801  140.0547  166.6115 O.3     1  UNL1       -0.4712
     23 O         139.1576  138.1012  163.0024 O.3     1  UNL1       -0.3505
     24 C         138.0655  138.5501  162.0774 C.3     1  UNL1        0.1741
     25 C         142.6875  137.9574  159.1920 C.3     1  UNL1        0.0818
     26 C         141.7567  138.5198  158.1589 C.3     1  UNL1        0.1026
     27 C         141.0101  137.5979  157.2408 C.2     1  UNL1        0.2270
     28 O         139.5102  137.5888  157.2443 O.2     1  UNL1       -0.2748
     29 N         141.7635  136.6853  156.3191 N.am    1  UNL1       -0.2795
     30 C         141.1571  135.7140  155.3502 C.3     1  UNL1        0.0935
     31 C         142.2744  135.0121  154.6368 C.3     1  UNL1        0.0233
     32 C         143.5715  135.5496  155.1648 C.3     1  UNL1        0.0233
     33 C         143.2558  136.5837  156.2046 C.3     1  UNL1        0.0935
@<TRIPOS>BOND
     1    21    22    1
     2    22    11    1
     3    11    12   ar
     4    12    13   ar
     5    13    14    1
     6    13    15   ar
     7    15    16    1
     8    15    17   ar
     9    17    18   ar
    10    18     7    1
    11     7     8    2
    12     7     9   am
    13     1     9    1
    14     1     2    1
    15     2     3    1
    16     3     4    1
    17     4    25    1
    18    25    26    1
    19    26    27    1
    20    27    28    2
    21    27    29   am
    22    29    30    1
    23    30    31    1
    24    31    32    1
    25    32    33    1
    26     4     5    1
    27     5     6    1
    28     6    23    1
    29    23    24    1
    30    18    11   ar
    31     6     1    1
    32    33    29    1
    33    14    19    1
    34    14    20    1
    35     9    10    1
@<TRIPOS>MOLECULE
*****
 33 35 0 0 0
SMALL
GASTEIGER

@<TRIPOS>ATOM
      1 C         139.6790  143.5958  163.1875 C.3     1  UNL1        0.1017
      2 C         139.6520  145.0908  163.0680 C.3     1  UNL1        0.0394
      3 C         139.9288  145.7426  161.7456 C.3     1  UNL1        0.0740
      4 N         140.2326  144.8994  160.5428 N.3     1  UNL1       -0.2701
      5 C         140.2596  143.4045  160.6623 C.3     1  UNL1        0.1037
      6 C         139.9828  142.7526  161.9846 C.3     1  UNL1        0.1490
      7 C         140.5250  142.6939  165.4724 C.2     1  UNL1        0.2488
      8 O         141.9247  143.0958  165.1127 O.2     1  UNL1       -0.2700
      9 N         139.4022  142.9439  164.5097 N.am    1  UNL1       -0.2999
     10 H         138.4835  142.6802  164.7458 H       1  UNL1        0.1498
     11 C         139.7867  140.6157  166.8457 C.ar    1  UNL1        0.1443
     12 C         139.5099  139.9639  168.1680 C.ar    1  UNL1        0.0520
     13 C         139.6944  140.7385  169.4392 C.ar    1  UNL1        0.0553
     14 N         139.4175  140.0866  170.7616 N.pl3   1  UNL1       -0.3563
     15 C         140.1558  142.1648  169.3882 C.ar    1  UNL1        0.0709
     16 CL        140.3404  142.9393  170.6594 Cl      1  UNL1       -0.0810
     17 C         140.4327  142.8166  168.0659 C.ar    1  UNL1        0.0202
     18 C         140.2481  142.0421  166.7947 C.ar    1  UNL1        0.0882
     19 H         139.1147  139.1504  170.7951 H       1  UNL1        0.1424
     20 H         139.5387  140.5949  171.5959 H       1  UNL1        0.1424
     21 C         138.2225  139.5947  165.0400 C.3     1  UNL1        0.2525
     22 O         139.6022  139.8412  165.5745 O.3     1  UNL1       -0.4712
     23 O         140.0098  141.2576  162.1041 O.3     1  UNL1       -0.3505
     24 C         141.2839  140.5576  162.4734 C.3     1  UNL1        0.1741
     25 C         140.5095  145.5513  159.2206 C.3     1  UNL1        0.0818
     26 C         140.0140  144.9184  157.9541 C.3     1  UNL1        0.1026
     27 C         140.5826  145.3415  156.6320 C.2     1  UNL1        0.2270
     28 O         141.6578  144.5227  155.9814 O.2     1  UNL1       -0.2748
     29 N         140.0758  146.5834  155.9606 N.am    1  UNL1       -0.2795
     30 C         140.5457  147.1286  154.6445 C.3     1  UNL1        0.0935
     31 C         139.7705  148.3804  154.3579 C.3     1  UNL1        0.0233
     32 C         138.8214  148.6088  155.4968 C.3     1  UNL1        0.0233
     33 C         139.0101  147.4983  156.4874 C.3     1  UNL1        0.0935
@<TRIPOS>BOND
     1    21    22    1
     2    22    11    1
     3    11    12   ar
     4    12    13   ar
     5    13    14    1
     6    13    15   ar
     7    15    16    1
     8    15    17   ar
     9    17    18   ar
    10    18     7    1
    11     7     8    2
    12     7     9   am
    13     1     9    1
    14     1     2    1
    15     2     3    1
    16     3     4    1
    17     4    25    1
    18    25    26    1
    19    26    27    1
    20    27    28    2
    21    27    29   am
    22    29    30    1
    23    30    31    1
    24    31    32    1
    25    32    33    1
    26     4     5    1
    27     5     6    1
    28     6    23    1
    29    23    24    1
    30    18    11   ar
    31     6     1    1
    32    33    29    1
    33    14    19    1
    34    14    20    1
    35     9    10    1
@<TRIPOS>MOLECULE
*****
 33 35 0 0 0
SMALL
GASTEIGER

@<TRIPOS>ATOM
      1 C         140.5534  139.1084  160.6120 C.3     1  UNL1        0.1017
      2 C         139.4352  138.8799  159.6387 C.3     1  UNL1        0.0394
      3 C         139.7414  138.5027  158.2196 C.3     1  UNL1        0.0740
      4 N         141.1659  138.3540  157.7737 N.3     1  UNL1       -0.2701
      5 C         142.2841  138.5825  158.7470 C.3     1  UNL1        0.1037
      6 C         141.9779  138.9597  160.1661 C.3     1  UNL1        0.1490
      7 C         140.2508  138.4367  163.1034 C.2     1  UNL1        0.2488
      8 O         140.5606  137.0107  162.7567 O.2     1  UNL1       -0.2700
      9 N         140.2472  139.4856  162.0311 N.am    1  UNL1       -0.2999
     10 H         140.0439  140.4216  162.2588 H       1  UNL1        0.1498
     11 C         140.8558  139.7467  165.2640 C.ar    1  UNL1        0.1443
     12 C         140.5496  140.1239  166.6831 C.ar    1  UNL1        0.0520
     13 C         139.3322  139.5684  167.3608 C.ar    1  UNL1        0.0553
     14 N         139.0259  139.9457  168.7800 N.pl3   1  UNL1       -0.3563
     15 C         138.4209  138.6358  166.6194 C.ar    1  UNL1        0.0709
     16 CL        137.2035  138.0803  167.2971 Cl      1  UNL1       -0.0810
     17 C         138.7272  138.2585  165.2003 C.ar    1  UNL1        0.0202
     18 C         139.9446  138.8140  164.5226 C.ar    1  UNL1        0.0882
     19 H         139.6240  140.5579  169.2666 H       1  UNL1        0.1424
     20 H         138.2269  139.5812  169.2248 H       1  UNL1        0.1424
     21 C         142.4950  141.7183  164.8445 C.3     1  UNL1        0.2525
     22 O         142.0733  140.3021  164.5863 O.3     1  UNL1       -0.4712
     23 O         143.0962  139.1882  161.1394 O.3     1  UNL1       -0.3505
     24 C         143.9067  138.0280  161.6364 C.3     1  UNL1        0.1741
     25 C         141.4720  137.9768  156.3546 C.3     1  UNL1        0.0818
     26 C         141.4710  136.5337  155.9452 C.3     1  UNL1        0.1026
     27 C         142.7342  135.7291  156.0299 C.2     1  UNL1        0.2270
     28 O         144.0360  136.4072  156.3387 O.2     1  UNL1       -0.2748
     29 N         142.6954  134.2465  155.8057 N.am    1  UNL1       -0.2795
     30 C         143.8707  133.3159  155.8578 C.3     1  UNL1        0.0935
     31 C         143.3763  131.9284  155.5743 C.3     1  UNL1        0.0233
     32 C         141.8954  132.0014  155.3471 C.3     1  UNL1        0.0233
     33 C         141.4745  133.4341  155.4901 C.3     1  UNL1        0.0935
@<TRIPOS>BOND
     1    21    22    1
     2    22    11    1
     3    11    12   ar
     4    12    13   ar
     5    13    14    1
     6    13    15   ar
     7    15    16    1
     8    15    17   ar
     9    17    18   ar
    10    18     7    1
    11     7     8    2
    12     7     9   am
    13     1     9    1
    14     1     2    1
    15     2     3    1
    16     3     4    1
    17     4    25    1
    18    25    26    1
    19    26    27    1
    20    27    28    2
    21    27    29   am
    22    29    30    1
    23    30    31    1
    24    31    32    1
    25    32    33    1
    26     4     5    1
    27     5     6    1
    28     6    23    1
    29    23    24    1
    30    18    11   ar
    31     6     1    1
    32    33    29    1
    33    14    19    1
    34    14    20    1
    35     9    10    1
@<TRIPOS>MOLECULE
*****
 33 35 0 0 0
SMALL
GASTEIGER

@<TRIPOS>ATOM
      1 C         139.9368  143.5123  163.8946 C.3     1  UNL1        0.1017
      2 C         140.4129  144.9334  163.8326 C.3     1  UNL1        0.0394
      3 C         140.6430  145.5901  162.5037 C.3     1  UNL1        0.0740
      4 N         140.3970  144.8256  161.2368 N.3     1  UNL1       -0.2701
      5 C         139.9208  143.4046  161.2988 C.3     1  UNL1        0.1037
      6 C         139.6907  142.7479  162.6276 C.3     1  UNL1        0.1490
      7 C         140.8698  142.3316  166.0124 C.2     1  UNL1        0.2488
      8 O         142.2629  142.4642  165.4727 O.2     1  UNL1       -0.2700
      9 N         139.7067  142.8557  165.2234 N.am    1  UNL1       -0.2999
     10 H         138.7923  142.7687  165.5777 H       1  UNL1        0.1498
     11 C         139.6779  140.5295  167.4553 C.ar    1  UNL1        0.1443
     12 C         139.4478  139.8729  168.7842 C.ar    1  UNL1        0.0520
     13 C         140.1794  140.3617  169.9990 C.ar    1  UNL1        0.0553
     14 N         139.9492  139.7051  171.3279 N.pl3   1  UNL1       -0.3563
     15 C         141.1410  141.5072  169.8850 C.ar    1  UNL1        0.0709
     16 CL        141.8726  141.9961  171.0999 Cl      1  UNL1       -0.0810
     17 C         141.3712  142.1638  168.5562 C.ar    1  UNL1        0.0202
     18 C         140.6396  141.6750  167.3413 C.ar    1  UNL1        0.0882
     19 H         139.3180  138.9532  171.4027 H       1  UNL1        0.1424
     20 H         140.4294  140.0259  172.1253 H       1  UNL1        0.1424
     21 C         137.9864  138.8937  166.3541 C.3     1  UNL1        0.2525
     22 O         138.9464  140.0406  166.2405 O.3     1  UNL1       -0.4712
     23 O         139.2146  141.3268  162.6895 O.3     1  UNL1       -0.3505
     24 C         137.7463  141.0249  162.6381 C.3     1  UNL1        0.1741
     25 C         140.6271  145.4823  159.9080 C.3     1  UNL1        0.0818
     26 C         141.1394  144.6759  158.7516 C.3     1  UNL1        0.1026
     27 C         140.1793  144.1138  157.7454 C.2     1  UNL1        0.2270
     28 O         139.8776  142.6445  157.7361 O.2     1  UNL1       -0.2748
     29 N         139.5211  145.0210  156.7486 N.am    1  UNL1       -0.2795
     30 C         138.5448  144.6054  155.6883 C.3     1  UNL1        0.0935
     31 C         138.1439  145.8306  154.9214 C.3     1  UNL1        0.0233
     32 C         138.8724  147.0035  155.5078 C.3     1  UNL1        0.0233
     33 C         139.7236  146.5031  156.6370 C.3     1  UNL1        0.0935
@<TRIPOS>BOND
     1    21    22    1
     2    22    11    1
     3    11    12   ar
     4    12    13   ar
     5    13    14    1
     6    13    15   ar
     7    15    16    1
     8    15    17   ar
     9    17    18   ar
    10    18     7    1
    11     7     8    2
    12     7     9   am
    13     1     9    1
    14     1     2    1
    15     2     3    1
    16     3     4    1
    17     4    25    1
    18    25    26    1
    19    26    27    1
    20    27    28    2
    21    27    29   am
    22    29    30    1
    23    30    31    1
    24    31    32    1
    25    32    33    1
    26     4     5    1
    27     5     6    1
    28     6    23    1
    29    23    24    1
    30    18    11   ar
    31     6     1    1
    32    33    29    1
    33    14    19    1
    34    14    20    1
    35     9    10    1
@<TRIPOS>MOLECULE
*****
 33 35 0 0 0
SMALL
GASTEIGER

@<TRIPOS>ATOM
      1 C         143.4665  139.2344  162.6390 C.3     1  UNL1        0.1017
      2 C         142.6836  138.0313  162.2036 C.3     1  UNL1        0.0394
      3 C         142.5307  137.7243  160.7432 C.3     1  UNL1        0.0740
      4 N         143.1606  138.6204  159.7185 N.3     1  UNL1       -0.2701
      5 C         143.9435  139.8235  160.1540 C.3     1  UNL1        0.1037
      6 C         144.0965  140.1305  161.6142 C.3     1  UNL1        0.1490
      7 C         142.5160  140.2383  164.8388 C.2     1  UNL1        0.2488
      8 O         141.2597  140.6282  164.1180 O.2     1  UNL1       -0.2700
      9 N         143.6194  139.5414  164.0993 N.am    1  UNL1       -0.2999
     10 H         144.4440  139.2855  164.5723 H       1  UNL1        0.1498
     11 C         142.9666  141.9466  166.7437 C.ar    1  UNL1        0.1443
     12 C         143.1196  142.2535  168.2039 C.ar    1  UNL1        0.0520
     13 C         142.9750  141.1591  169.2195 C.ar    1  UNL1        0.0553
     14 N         143.1280  141.4661  170.6799 N.pl3   1  UNL1       -0.3563
     15 C         142.6774  139.7578  168.7749 C.ar    1  UNL1        0.0709
     16 CL        142.5328  138.6635  169.7905 Cl      1  UNL1       -0.0810
     17 C         142.5244  139.4509  167.3147 C.ar    1  UNL1        0.0202
     18 C         142.6690  140.5453  166.2991 C.ar    1  UNL1        0.0882
     19 H         143.3233  142.3859  170.9717 H       1  UNL1        0.1424
     20 H         143.0331  140.7479  171.3464 H       1  UNL1        0.1424
     21 C         144.4729  143.4309  165.2345 C.3     1  UNL1        0.2525
     22 O         143.1113  143.0410  165.7281 O.3     1  UNL1       -0.4712
     23 O         144.8794  141.3336  162.0497 O.3     1  UNL1       -0.3505
     24 C         144.6167  142.6684  161.4178 C.3     1  UNL1        0.1741
     25 C         143.0077  138.3134  158.2583 C.3     1  UNL1        0.0818
     26 C         142.0059  137.2921  157.8075 C.3     1  UNL1        0.1026
     27 C         142.2514  136.5019  156.5563 C.2     1  UNL1        0.2270
     28 O         141.7808  137.0278  155.2327 O.2     1  UNL1       -0.2748
     29 N         142.9677  135.1860  156.6288 N.am    1  UNL1       -0.2795
     30 C         143.2836  134.2890  155.4687 C.3     1  UNL1        0.0935
     31 C         144.0050  133.0846  155.9970 C.3     1  UNL1        0.0233
     32 C         144.1349  133.2372  157.4836 C.3     1  UNL1        0.0233
     33 C         143.4939  134.5359  157.8741 C.3     1  UNL1        0.0935
@<TRIPOS>BOND
     1    21    22    1
     2    22    11    1
     3    11    12   ar
     4    12    13   ar
     5    13    14    1
     6    13    15   ar
     7    15    16    1
     8    15    17   ar
     9    17    18   ar
    10    18     7    1
    11     7     8    2
    12     7     9   am
    13     1     9    1
    14     1     2    1
    15     2     3    1
    16     3     4    1
    17     4    25    1
    18    25    26    1
    19    26    27    1
    20    27    28    2
    21    27    29   am
    22    29    30    1
    23    30    31    1
    24    31    32    1
    25    32    33    1
    26     4     5    1
    27     5     6    1
    28     6    23    1
    29    23    24    1
    30    18    11   ar
    31     6     1    1
    32    33    29    1
    33    14    19    1
    34    14    20    1
    35     9    10    1
@<TRIPOS>MOLECULE
*****
 33 35 0 0 0
SMALL
GASTEIGER

@<TRIPOS>ATOM
      1 C         142.3030  140.3475  163.3029 C.3     1  UNL1        0.1017
      2 C         141.2482  140.1663  162.2520 C.3     1  UNL1        0.0394
      3 C         141.6442  139.9447  160.8222 C.3     1  UNL1        0.0740
      4 N         143.0950  139.9042  160.4434 N.3     1  UNL1       -0.2701
      5 C         144.1498  140.0853  161.4944 C.3     1  UNL1        0.1037
      6 C         143.7539  140.3070  162.9241 C.3     1  UNL1        0.1490
      7 C         141.9341  139.4266  165.7041 C.2     1  UNL1        0.2488
      8 O         142.3569  138.0624  165.2459 O.2     1  UNL1       -0.2700
      9 N         141.9071  140.5692  164.7326 N.am    1  UNL1       -0.2999
     10 H         141.6296  141.4646  165.0333 H       1  UNL1        0.1498
     11 C         140.1148  139.9756  167.4758 C.ar    1  UNL1        0.1443
     12 C         139.7189  140.1973  168.9055 C.ar    1  UNL1        0.0520
     13 C         140.7464  140.0917  169.9932 C.ar    1  UNL1        0.0553
     14 N         140.3504  140.3134  171.4230 N.pl3   1  UNL1       -0.3563
     15 C         142.1697  139.7644  169.6513 C.ar    1  UNL1        0.0709
     16 CL        143.1971  139.6589  170.7390 Cl      1  UNL1       -0.0810
     17 C         142.5656  139.5427  168.2216 C.ar    1  UNL1        0.0202
     18 C         141.5381  139.6483  167.1338 C.ar    1  UNL1        0.0882
     19 H         139.4162  140.5282  171.6474 H       1  UNL1        0.1424
     20 H         141.0247  140.2442  172.1369 H       1  UNL1        0.1424
     21 C         138.2070  138.9087  166.0715 C.3     1  UNL1        0.2525
     22 O         139.0873  140.0811  166.3880 O.3     1  UNL1       -0.4712
     23 O         144.8088  140.4881  163.9750 O.3     1  UNL1       -0.3505
     24 C         145.6703  141.7160  163.9690 C.3     1  UNL1        0.1741
     25 C         143.4909  139.6825  159.0137 C.3     1  UNL1        0.0818
     26 C         142.5068  139.0964  158.0452 C.3     1  UNL1        0.1026
     27 C         142.9724  138.6107  156.7045 C.2     1  UNL1        0.2270
     28 O         143.2326  139.5919  155.6003 O.2     1  UNL1       -0.2748
     29 N         143.1778  137.1437  156.4682 N.am    1  UNL1       -0.2795
     30 C         143.6376  136.5129  155.1873 C.3     1  UNL1        0.0935
     31 C         143.7035  135.0293  155.3987 C.3     1  UNL1        0.0233
     32 C         143.2845  134.7432  156.8103 C.3     1  UNL1        0.0233
     33 C         142.9596  136.0500  157.4713 C.3     1  UNL1        0.0935
@<TRIPOS>BOND
     1    21    22    1
     2    22    11    1
     3    11    12   ar
     4    12    13   ar
     5    13    14    1
     6    13    15   ar
     7    15    16    1
     8    15    17   ar
     9    17    18   ar
    10    18     7    1
    11     7     8    2
    12     7     9   am
    13     1     9    1
    14     1     2    1
    15     2     3    1
    16     3     4    1
    17     4    25    1
    18    25    26    1
    19    26    27    1
    20    27    28    2
    21    27    29   am
    22    29    30    1
    23    30    31    1
    24    31    32    1
    25    32    33    1
    26     4     5    1
    27     5     6    1
    28     6    23    1
    29    23    24    1
    30    18    11   ar
    31     6     1    1
    32    33    29    1
    33    14    19    1
    34    14    20    1
    35     9    10    1
@<TRIPOS>MOLECULE
*****
 33 35 0 0 0
SMALL
GASTEIGER

@<TRIPOS>ATOM
      1 C         141.0854  139.0813  160.8806 C.3     1  UNL1        0.1017
      2 C         142.5235  138.9044  160.4924 C.3     1  UNL1        0.0394
      3 C         142.8791  138.5227  159.0860 C.3     1  UNL1        0.0740
      4 N         141.7967  138.3178  158.0679 N.3     1  UNL1       -0.2701
      5 C         140.3587  138.4947  158.4562 C.3     1  UNL1        0.1037
      6 C         140.0030  138.8764  159.8625 C.3     1  UNL1        0.1490
      7 C         140.3528  138.4032  163.2792 C.2     1  UNL1        0.2488
      8 O         140.3314  136.9617  162.8652 O.2     1  UNL1       -0.2700
      9 N         140.7298  139.4630  162.2869 N.am    1  UNL1       -0.2999
     10 H         140.7438  140.4092  162.5587 H       1  UNL1        0.1498
     11 C         140.8969  139.6973  165.4655 C.ar    1  UNL1        0.1443
     12 C         140.5412  140.0790  166.8718 C.ar    1  UNL1        0.0520
     13 C         139.2857  139.5485  167.4982 C.ar    1  UNL1        0.0553
     14 N         138.9300  139.9303  168.9046 N.pl3   1  UNL1       -0.3563
     15 C         138.3859  138.6363  166.7183 C.ar    1  UNL1        0.0709
     16 CL        137.1305  138.1059  167.3448 Cl      1  UNL1       -0.0810
     17 C         138.7416  138.2546  165.3120 C.ar    1  UNL1        0.0202
     18 C         139.9971  138.7850  164.6856 C.ar    1  UNL1        0.0882
     19 H         139.5206  140.5291  169.4164 H       1  UNL1        0.1424
     20 H         138.1060  139.5822  169.3157 H       1  UNL1        0.1424
     21 C         142.4140  141.7045  164.8181 C.3     1  UNL1        0.2525
     22 O         142.1523  140.2277  164.8390 O.3     1  UNL1       -0.4712
     23 O         138.5650  139.0533  160.2508 O.3     1  UNL1       -0.3505
     24 C         137.9271  140.4084  160.1685 C.3     1  UNL1        0.1741
     25 C         142.1524  137.9361  156.6616 C.3     1  UNL1        0.0818
     26 C         142.9177  136.6732  156.3980 C.3     1  UNL1        0.1026
     27 C         142.1878  135.4203  156.0139 C.2     1  UNL1        0.2270
     28 O         140.9023  135.5067  155.2459 O.2     1  UNL1       -0.2748
     29 N         142.7436  134.0810  156.3977 N.am    1  UNL1       -0.2795
     30 C         142.1290  132.7488  156.0852 C.3     1  UNL1        0.0935
     31 C         143.0171  131.6832  156.6559 C.3     1  UNL1        0.0233
     32 C         144.1807  132.3567  157.3210 C.3     1  UNL1        0.0233
     33 C         144.0117  133.8386  157.1615 C.3     1  UNL1        0.0935
@<TRIPOS>BOND
     1    21    22    1
     2    22    11    1
     3    11    12   ar
     4    12    13   ar
     5    13    14    1
     6    13    15   ar
     7    15    16    1
     8    15    17   ar
     9    17    18   ar
    10    18     7    1
    11     7     8    2
    12     7     9   am
    13     1     9    1
    14     1     2    1
    15     2     3    1
    16     3     4    1
    17     4    25    1
    18    25    26    1
    19    26    27    1
    20    27    28    2
    21    27    29   am
    22    29    30    1
    23    30    31    1
    24    31    32    1
    25    32    33    1
    26     4     5    1
    27     5     6    1
    28     6    23    1
    29    23    24    1
    30    18    11   ar
    31     6     1    1
    32    33    29    1
    33    14    19    1
    34    14    20    1
    35     9    10    1
