@<TRIPOS>MOLECULE
*****
 28 31 0 0 0
SMALL
GASTEIGER

@<TRIPOS>ATOM
      1 C         142.7181  141.3147  166.6744 C.ar    1  UNL1        0.0685
      2 C         142.9903  139.8875  166.3015 C.ar    1  UNL1        0.0711
      3 C         142.9002  139.0576  167.5478 C.ar    1  UNL1        0.0235
      4 C         142.5723  139.9719  168.6909 C.ar    1  UNL1        0.0642
      5 C         142.3616  139.7144  170.1535 C.ar    1  UNL1        0.0176
      6 C         142.0385  140.8519  171.0763 C.ar    1  UNL1        0.0030
      7 C         141.9260  142.2469  170.5365 C.ar    1  UNL1        0.0190
      8 C         142.1367  142.5044  169.0739 C.ar    1  UNL1        0.0801
      9 N         142.4598  141.3669  168.1511 N.ar    1  UNL1       -0.3048
     10 C         143.2985  139.3795  164.9243 C.2     1  UNL1        0.2505
     11 O         144.7140  139.3688  164.4281 O.2     1  UNL1       -0.2699
     12 N         142.1912  138.8821  164.0431 N.am    1  UNL1       -0.2752
     13 C         140.7756  138.8927  164.5393 C.3     1  UNL1        0.0937
     14 C         139.6683  138.3953  163.6582 C.3     1  UNL1        0.0216
     15 C         139.9765  137.8872  162.2809 C.3     1  UNL1        0.0035
     16 C         141.3920  137.8766  161.7847 C.3     1  UNL1        0.0224
     17 C         142.4994  138.3740  162.6659 C.3     1  UNL1        0.1048
     18 C         143.9148  138.3633  162.1697 C.3     1  UNL1        0.1568
     19 O         144.5057  139.6006  161.5614 O.3     1  UNL1       -0.3802
     20 H         144.0448  139.8053  160.7328 H       1  UNL1        0.2105
     21 C         141.3904  144.2087  164.3055 C.ar    1  UNL1        0.1388
     22 C         142.6830  144.8239  163.8576 C.ar    1  UNL1        0.0369
     23 C         143.9873  144.2695  164.3486 C.ar    1  UNL1        0.0032
     24 C         143.9991  143.0997  165.2876 C.ar    1  UNL1        0.0016
     25 C         142.7064  142.4845  165.7355 C.ar    1  UNL1        0.0193
     26 C         141.4021  143.0390  165.2444 C.ar    1  UNL1        0.0383
     27 C         138.8877  144.7723  164.7167 C.3     1  UNL1        0.2525
     28 O         140.0860  144.7632  163.8144 O.3     1  UNL1       -0.4714
@<TRIPOS>BOND
     1    27    28    1
     2    28    21    1
     3    21    22   ar
     4    22    23   ar
     5    23    24   ar
     6    24    25   ar
     7    25     1    1
     8     1     2   ar
     9     2    10    1
    10    10    11    2
    11    10    12   am
    12    12    13    1
    13    13    14    1
    14    14    15    1
    15    15    16    1
    16    16    17    1
    17    17    18    1
    18    18    19    1
    19     2     3   ar
    20     3     4   ar
    21     4     5   ar
    22     5     6   ar
    23     6     7   ar
    24     7     8   ar
    25     8     9   ar
    26    25    26   ar
    27    26    21   ar
    28     9     1   ar
    29    17    12    1
    30     9     4   ar
    31    19    20    1
@<TRIPOS>MOLECULE
*****
 28 31 0 0 0
SMALL
GASTEIGER

@<TRIPOS>ATOM
      1 C         141.6104  140.3164  166.9141 C.ar    1  UNL1        0.0685
      2 C         140.2742  139.7006  166.6218 C.ar    1  UNL1        0.0711
      3 C         139.4188  139.8472  167.8453 C.ar    1  UNL1        0.0235
      4 C         140.2263  140.5535  168.8936 C.ar    1  UNL1        0.0642
      5 C         139.9032  140.9701  170.2979 C.ar    1  UNL1        0.0176
      6 C         140.9346  141.6767  171.1266 C.ar    1  UNL1        0.0030
      7 C         142.2891  141.9667  170.5511 C.ar    1  UNL1        0.0190
      8 C         142.6122  141.5501  169.1469 C.ar    1  UNL1        0.0801
      9 N         141.5808  140.8435  168.3181 N.ar    1  UNL1       -0.3048
     10 C         139.8653  139.0521  165.3326 C.2     1  UNL1        0.2505
     11 O         140.2683  137.6364  165.0443 O.2     1  UNL1       -0.2699
     12 N         139.0533  139.8194  164.3316 N.am    1  UNL1       -0.2752
     13 C         138.6503  141.2352  164.6199 C.3     1  UNL1        0.0937
     14 C         137.8384  142.0025  163.6189 C.3     1  UNL1        0.0216
     15 C         137.4294  141.3540  162.3296 C.3     1  UNL1        0.0035
     16 C         137.8324  139.9383  162.0413 C.3     1  UNL1        0.0224
     17 C         138.6444  139.1709  163.0423 C.3     1  UNL1        0.1048
     18 C         139.0474  137.7551  162.7540 C.3     1  UNL1        0.1568
     19 O         140.3672  137.4692  162.1011 O.3     1  UNL1       -0.3802
     20 H         140.3651  137.8243  161.1985 H       1  UNL1        0.2105
     21 C         144.3426  141.7877  164.4402 C.ar    1  UNL1        0.1388
     22 C         145.0960  140.5426  164.0769 C.ar    1  UNL1        0.0369
     23 C         144.6876  139.2221  164.6594 C.ar    1  UNL1        0.0032
     24 C         143.5257  139.1466  165.6051 C.ar    1  UNL1        0.0016
     25 C         142.7723  140.3918  165.9684 C.ar    1  UNL1        0.0193
     26 C         143.1807  141.7123  165.3859 C.ar    1  UNL1        0.0383
     27 C         144.4424  143.4233  162.4240 C.3     1  UNL1        0.2525
     28 O         144.7510  143.1083  163.8577 O.3     1  UNL1       -0.4714
@<TRIPOS>BOND
     1    27    28    1
     2    28    21    1
     3    21    22   ar
     4    22    23   ar
     5    23    24   ar
     6    24    25   ar
     7    25     1    1
     8     1     2   ar
     9     2    10    1
    10    10    11    2
    11    10    12   am
    12    12    13    1
    13    13    14    1
    14    14    15    1
    15    15    16    1
    16    16    17    1
    17    17    18    1
    18    18    19    1
    19     2     3   ar
    20     3     4   ar
    21     4     5   ar
    22     5     6   ar
    23     6     7   ar
    24     7     8   ar
    25     8     9   ar
    26    25    26   ar
    27    26    21   ar
    28     9     1   ar
    29    17    12    1
    30     9     4   ar
    31    19    20    1
@<TRIPOS>MOLECULE
*****
 28 31 0 0 0
SMALL
GASTEIGER

@<TRIPOS>ATOM
      1 C         141.0229  141.7317  166.4670 C.ar    1  UNL1        0.0685
      2 C         140.5695  140.3599  166.0637 C.ar    1  UNL1        0.0711
      3 C         139.8319  139.7564  167.2220 C.ar    1  UNL1        0.0235
      4 C         139.8294  140.7552  168.3412 C.ar    1  UNL1        0.0642
      5 C         139.2520  140.7107  169.7248 C.ar    1  UNL1        0.0176
      6 C         139.4106  141.8871  170.6418 C.ar    1  UNL1        0.0030
      7 C         140.1467  143.1079  170.1752 C.ar    1  UNL1        0.0190
      8 C         140.7241  143.1524  168.7915 C.ar    1  UNL1        0.0801
      9 N         140.5655  141.9760  167.8745 N.ar    1  UNL1       -0.3048
     10 C         140.8113  139.7064  164.7354 C.2     1  UNL1        0.2505
     11 O         142.0582  138.9035  164.5104 O.2     1  UNL1       -0.2699
     12 N         139.8062  139.8558  163.6320 N.am    1  UNL1       -0.2752
     13 C         138.5593  140.6587  163.8569 C.3     1  UNL1        0.0937
     14 C         137.5542  140.8081  162.7536 C.3     1  UNL1        0.0216
     15 C         137.7960  140.1546  161.4252 C.3     1  UNL1        0.0035
     16 C         139.0429  139.3517  161.2003 C.3     1  UNL1        0.0224
     17 C         140.0480  139.2023  162.3037 C.3     1  UNL1        0.1048
     18 C         141.2949  138.3994  162.0787 C.3     1  UNL1        0.1568
     19 O         141.3443  136.9587  162.4934 O.3     1  UNL1       -0.3802
     20 H         141.2844  136.8982  163.4597 H       1  UNL1        0.2105
     21 C         141.8476  144.6176  163.8704 C.ar    1  UNL1        0.1388
     22 C         143.3472  144.6092  163.9042 C.ar    1  UNL1        0.0369
     23 C         144.0720  143.6418  164.7922 C.ar    1  UNL1        0.0032
     24 C         143.2973  142.6826  165.6465 C.ar    1  UNL1        0.0016
     25 C         141.7976  142.6909  165.6127 C.ar    1  UNL1        0.0193
     26 C         141.0729  143.6584  164.7247 C.ar    1  UNL1        0.0383
     27 C         139.6803  145.3544  162.6417 C.3     1  UNL1        0.2525
     28 O         141.1228  145.5850  162.9824 O.3     1  UNL1       -0.4714
@<TRIPOS>BOND
     1    27    28    1
     2    28    21    1
     3    21    22   ar
     4    22    23   ar
     5    23    24   ar
     6    24    25   ar
     7    25     1    1
     8     1     2   ar
     9     2    10    1
    10    10    11    2
    11    10    12   am
    12    12    13    1
    13    13    14    1
    14    14    15    1
    15    15    16    1
    16    16    17    1
    17    17    18    1
    18    18    19    1
    19     2     3   ar
    20     3     4   ar
    21     4     5   ar
    22     5     6   ar
    23     6     7   ar
    24     7     8   ar
    25     8     9   ar
    26    25    26   ar
    27    26    21   ar
    28     9     1   ar
    29    17    12    1
    30     9     4   ar
    31    19    20    1
@<TRIPOS>MOLECULE
*****
 28 31 0 0 0
SMALL
GASTEIGER

@<TRIPOS>ATOM
      1 C         140.1262  141.8601  166.2718 C.ar    1  UNL1        0.0685
      2 C         139.6917  140.4632  165.9402 C.ar    1  UNL1        0.0711
      3 C         139.4894  139.7226  167.2288 C.ar    1  UNL1        0.0235
      4 C         139.7990  140.6617  168.3568 C.ar    1  UNL1        0.0642
      5 C         139.7734  140.4845  169.8460 C.ar    1  UNL1        0.0176
      6 C         140.1413  141.6285  170.7438 C.ar    1  UNL1        0.0030
      7 C         140.5349  142.9495  170.1523 C.ar    1  UNL1        0.0190
      8 C         140.5605  143.1267  168.6630 C.ar    1  UNL1        0.0801
      9 N         140.1926  141.9827  167.7653 N.ar    1  UNL1       -0.3048
     10 C         139.4940  139.9050  164.5620 C.2     1  UNL1        0.2505
     11 O         138.1352  139.9372  163.9276 O.2     1  UNL1       -0.2699
     12 N         140.6552  139.3147  163.8183 N.am    1  UNL1       -0.2752
     13 C         142.0141  139.2825  164.4528 C.3     1  UNL1        0.0937
     14 C         143.1753  138.6922  163.7091 C.3     1  UNL1        0.0216
     15 C         142.9776  138.1340  162.3309 C.3     1  UNL1        0.0035
     16 C         141.6188  138.1661  161.6964 C.3     1  UNL1        0.0224
     17 C         140.4576  138.7565  162.4402 C.3     1  UNL1        0.1048
     18 C         139.0988  138.7886  161.8057 C.3     1  UNL1        0.1568
     19 O         138.1551  137.6382  161.9953 O.3     1  UNL1       -0.3802
     20 H         138.5172  136.8485  161.5636 H       1  UNL1        0.2105
     21 C         142.1778  144.3223  163.9312 C.ar    1  UNL1        0.1388
     22 C         141.0659  145.1119  163.3065 C.ar    1  UNL1        0.0369
     23 C         139.6407  144.8176  163.6703 C.ar    1  UNL1        0.0032
     24 C         139.3275  143.7337  164.6587 C.ar    1  UNL1        0.0016
     25 C         140.4395  142.9440  165.2834 C.ar    1  UNL1        0.0193
     26 C         141.8645  143.2384  164.9196 C.ar    1  UNL1        0.0383
     27 C         144.2822  143.8212  162.4923 C.3     1  UNL1        0.2525
     28 O         143.6029  144.6167  163.5674 O.3     1  UNL1       -0.4714
@<TRIPOS>BOND
     1    27    28    1
     2    28    21    1
     3    21    22   ar
     4    22    23   ar
     5    23    24   ar
     6    24    25   ar
     7    25     1    1
     8     1     2   ar
     9     2    10    1
    10    10    11    2
    11    10    12   am
    12    12    13    1
    13    13    14    1
    14    14    15    1
    15    15    16    1
    16    16    17    1
    17    17    18    1
    18    18    19    1
    19     2     3   ar
    20     3     4   ar
    21     4     5   ar
    22     5     6   ar
    23     6     7   ar
    24     7     8   ar
    25     8     9   ar
    26    25    26   ar
    27    26    21   ar
    28     9     1   ar
    29    17    12    1
    30     9     4   ar
    31    19    20    1
@<TRIPOS>MOLECULE
*****
 28 31 0 0 0
SMALL
GASTEIGER

@<TRIPOS>ATOM
      1 C         141.3588  140.5518  166.6420 C.ar    1  UNL1        0.0685
      2 C         142.6540  141.2833  166.4490 C.ar    1  UNL1        0.0711
      3 C         143.0460  141.8868  167.7651 C.ar    1  UNL1        0.0235
      4 C         141.9932  141.5282  168.7715 C.ar    1  UNL1        0.0642
      5 C         141.8493  141.8464  170.2302 C.ar    1  UNL1        0.0176
      6 C         140.6625  141.3394  170.9949 C.ar    1  UNL1        0.0030
      7 C         139.6197  140.5144  170.3008 C.ar    1  UNL1        0.0190
      8 C         139.7636  140.1962  168.8420 C.ar    1  UNL1        0.0801
      9 N         140.9504  140.7031  168.0774 N.ar    1  UNL1       -0.3048
     10 C         143.4223  141.3923  165.1653 C.2     1  UNL1        0.2505
     11 O         144.5025  140.4002  164.8512 O.2     1  UNL1       -0.2699
     12 N         143.1102  142.4934  164.1956 N.am    1  UNL1       -0.2752
     13 C         142.0299  143.4856  164.5097 C.3     1  UNL1        0.0937
     14 C         141.7179  144.5867  163.5401 C.3     1  UNL1        0.0216
     15 C         142.4862  144.6956  162.2564 C.3     1  UNL1        0.0035
     16 C         143.5664  143.7035  161.9423 C.3     1  UNL1        0.0224
     17 C         143.8785  142.6024  162.9119 C.3     1  UNL1        0.1048
     18 C         144.9588  141.6102  162.5978 C.3     1  UNL1        0.1568
     19 O         146.3554  141.8399  163.0944 O.3     1  UNL1       -0.3802
     20 H         146.7266  142.6258  162.6636 H       1  UNL1        0.2105
     21 C         138.7202  139.7135  163.7985 C.ar    1  UNL1        0.1388
     22 C         139.0957  138.2986  163.4715 C.ar    1  UNL1        0.0369
     23 C         140.2255  137.6347  164.2013 C.ar    1  UNL1        0.0032
     24 C         140.9799  138.3857  165.2582 C.ar    1  UNL1        0.0016
     25 C         140.6044  139.8008  165.5852 C.ar    1  UNL1        0.0193
     26 C         139.4746  140.4646  164.8553 C.ar    1  UNL1        0.0383
     27 C         137.7250  140.6968  161.6093 C.3     1  UNL1        0.2525
     28 O         137.5904  140.3775  163.0687 O.3     1  UNL1       -0.4714
@<TRIPOS>BOND
     1    27    28    1
     2    28    21    1
     3    21    22   ar
     4    22    23   ar
     5    23    24   ar
     6    24    25   ar
     7    25     1    1
     8     1     2   ar
     9     2    10    1
    10    10    11    2
    11    10    12   am
    12    12    13    1
    13    13    14    1
    14    14    15    1
    15    15    16    1
    16    16    17    1
    17    17    18    1
    18    18    19    1
    19     2     3   ar
    20     3     4   ar
    21     4     5   ar
    22     5     6   ar
    23     6     7   ar
    24     7     8   ar
    25     8     9   ar
    26    25    26   ar
    27    26    21   ar
    28     9     1   ar
    29    17    12    1
    30     9     4   ar
    31    19    20    1
@<TRIPOS>MOLECULE
*****
 28 31 0 0 0
SMALL
GASTEIGER

@<TRIPOS>ATOM
      1 C         140.7168  141.1953  166.7615 C.ar    1  UNL1        0.0685
      2 C         141.6946  140.1631  166.2833 C.ar    1  UNL1        0.0711
      3 C         142.3433  139.5465  167.4870 C.ar    1  UNL1        0.0235
      4 C         141.7664  140.1975  168.7091 C.ar    1  UNL1        0.0642
      5 C         142.0267  139.9941  170.1723 C.ar    1  UNL1        0.0176
      6 C         141.2816  140.8097  171.1870 C.ar    1  UNL1        0.0030
      7 C         140.2764  141.8287  170.7385 C.ar    1  UNL1        0.0190
      8 C         140.0162  142.0321  169.2754 C.ar    1  UNL1        0.0801
      9 N         140.7612  141.2165  168.2607 N.ar    1  UNL1       -0.3048
     10 C         141.9745  139.8097  164.8527 C.2     1  UNL1        0.2505
     11 O         141.1145  138.8038  164.1466 O.2     1  UNL1       -0.2699
     12 N         143.1143  140.4621  164.1282 N.am    1  UNL1       -0.2752
     13 C         143.9744  141.4680  164.8343 C.3     1  UNL1        0.0937
     14 C         145.1143  142.1204  164.1097 C.3     1  UNL1        0.0216
     15 C         145.3942  141.7670  162.6791 C.3     1  UNL1        0.0035
     16 C         144.5342  140.7611  161.9730 C.3     1  UNL1        0.0224
     17 C         143.3943  140.1086  162.6975 C.3     1  UNL1        0.1048
     18 C         142.5343  139.1027  161.9914 C.3     1  UNL1        0.1568
     19 O         142.8444  137.6395  162.1049 O.3     1  UNL1       -0.3802
     20 H         143.6949  137.4551  161.6765 H       1  UNL1        0.2105
     21 C         138.0095  142.2809  164.0703 C.ar    1  UNL1        0.1388
     22 C         138.1082  143.7752  164.1558 C.ar    1  UNL1        0.0369
     23 C         139.0764  144.4096  165.1098 C.ar    1  UNL1        0.0032
     24 C         139.9459  143.5496  165.9784 C.ar    1  UNL1        0.0016
     25 C         139.8473  142.0552  165.8929 C.ar    1  UNL1        0.0193
     26 C         138.8791  141.4210  164.9389 C.ar    1  UNL1        0.0383
     27 C         137.5345  140.6853  162.0757 C.3     1  UNL1        0.2525
     28 O         137.0413  141.6466  163.1163 O.3     1  UNL1       -0.4714
@<TRIPOS>BOND
     1    27    28    1
     2    28    21    1
     3    21    22   ar
     4    22    23   ar
     5    23    24   ar
     6    24    25   ar
     7    25     1    1
     8     1     2   ar
     9     2    10    1
    10    10    11    2
    11    10    12   am
    12    12    13    1
    13    13    14    1
    14    14    15    1
    15    15    16    1
    16    16    17    1
    17    17    18    1
    18    18    19    1
    19     2     3   ar
    20     3     4   ar
    21     4     5   ar
    22     5     6   ar
    23     6     7   ar
    24     7     8   ar
    25     8     9   ar
    26    25    26   ar
    27    26    21   ar
    28     9     1   ar
    29    17    12    1
    30     9     4   ar
    31    19    20    1
@<TRIPOS>MOLECULE
*****
 28 31 0 0 0
SMALL
GASTEIGER

@<TRIPOS>ATOM
      1 C         142.5078  140.5454  166.3511 C.ar    1  UNL1        0.0685
      2 C         142.8195  142.0020  166.1745 C.ar    1  UNL1        0.0711
      3 C         143.1393  142.5745  167.5235 C.ar    1  UNL1        0.0235
      4 C         143.0252  141.4718  168.5340 C.ar    1  UNL1        0.0642
      5 C         143.2263  141.4475  170.0202 C.ar    1  UNL1        0.0176
      6 C         143.0371  140.1693  170.7818 C.ar    1  UNL1        0.0030
      7 C         142.6468  138.9152  170.0573 C.ar    1  UNL1        0.0190
      8 C         142.4457  138.9394  168.5710 C.ar    1  UNL1        0.0801
      9 N         142.6349  140.2177  167.8094 N.ar    1  UNL1       -0.3048
     10 C         142.8127  142.7540  164.8766 C.2     1  UNL1        0.2505
     11 O         144.0370  142.7657  164.0101 O.2     1  UNL1       -0.2699
     12 N         141.5815  143.4944  164.4453 N.am    1  UNL1       -0.2752
     13 C         140.3571  143.4827  165.3118 C.3     1  UNL1        0.0937
     14 C         139.1260  144.2231  164.8804 C.3     1  UNL1        0.0216
     15 C         139.1191  144.9751  163.5826 C.3     1  UNL1        0.0035
     16 C         140.3434  144.9868  162.7161 C.3     1  UNL1        0.0224
     17 C         141.5747  144.2464  163.1474 C.3     1  UNL1        0.1048
     18 C         142.7990  144.2581  162.2809 C.3     1  UNL1        0.1568
     19 O         143.8897  145.2555  162.5371 O.3     1  UNL1       -0.3802
     20 H         143.5578  146.1498  162.3612 H       1  UNL1        0.2105
     21 C         142.7465  138.3000  163.0875 C.ar    1  UNL1        0.1388
     22 C         141.3878  137.6645  163.0807 C.ar    1  UNL1        0.0369
     23 C         140.4024  137.9893  164.1639 C.ar    1  UNL1        0.0032
     24 C         140.7757  138.9496  165.2541 C.ar    1  UNL1        0.0016
     25 C         142.1345  139.5851  165.2610 C.ar    1  UNL1        0.0193
     26 C         143.1198  139.2603  164.1777 C.ar    1  UNL1        0.0383
     27 C         143.2519  137.7148  160.6072 C.3     1  UNL1        0.2525
     28 O         143.7319  137.9752  162.0043 O.3     1  UNL1       -0.4714
@<TRIPOS>BOND
     1    27    28    1
     2    28    21    1
     3    21    22   ar
     4    22    23   ar
     5    23    24   ar
     6    24    25   ar
     7    25     1    1
     8     1     2   ar
     9     2    10    1
    10    10    11    2
    11    10    12   am
    12    12    13    1
    13    13    14    1
    14    14    15    1
    15    15    16    1
    16    16    17    1
    17    17    18    1
    18    18    19    1
    19     2     3   ar
    20     3     4   ar
    21     4     5   ar
    22     5     6   ar
    23     6     7   ar
    24     7     8   ar
    25     8     9   ar
    26    25    26   ar
    27    26    21   ar
    28     9     1   ar
    29    17    12    1
    30     9     4   ar
    31    19    20    1
@<TRIPOS>MOLECULE
*****
 28 31 0 0 0
SMALL
GASTEIGER

@<TRIPOS>ATOM
      1 C         142.0296  142.1940  166.0406 C.ar    1  UNL1        0.0685
      2 C         140.6098  142.5118  165.6756 C.ar    1  UNL1        0.0711
      3 C         139.8867  142.9080  166.9287 C.ar    1  UNL1        0.0235
      4 C         140.8596  142.8351  168.0681 C.ar    1  UNL1        0.0642
      5 C         140.7107  143.1135  169.5344 C.ar    1  UNL1        0.0176
      6 C         141.8861  142.9505  170.4519 C.ar    1  UNL1        0.0030
      7 C         143.2105  142.5092  169.9030 C.ar    1  UNL1        0.0190
      8 C         143.3594  142.2308  168.4367 C.ar    1  UNL1        0.0801
      9 N         142.1840  142.3938  167.5192 N.ar    1  UNL1       -0.3048
     10 C         140.0171  142.4451  164.2993 C.2     1  UNL1        0.2505
     11 O         139.9721  143.6750  163.4417 O.2     1  UNL1       -0.2699
     12 N         139.4696  141.1486  163.7805 N.am    1  UNL1       -0.2752
     13 C         139.5146  139.9187  164.6381 C.3     1  UNL1        0.0937
     14 C         138.9671  138.6222  164.1193 C.3     1  UNL1        0.0216
     15 C         138.3744  138.5555  162.7429 C.3     1  UNL1        0.0035
     16 C         138.3293  139.7854  161.8854 C.3     1  UNL1        0.0224
     17 C         138.8769  141.0820  162.4042 C.3     1  UNL1        0.1048
     18 C         138.8318  142.3118  161.5466 C.3     1  UNL1        0.1568
     19 O         137.6288  143.2070  161.5819 O.3     1  UNL1       -0.3802
     20 H         136.8619  142.7322  161.2251 H       1  UNL1        0.2105
     21 C         144.0756  139.9872  163.4534 C.ar    1  UNL1        0.1388
     22 C         145.2589  140.8731  163.1986 C.ar    1  UNL1        0.0369
     23 C         145.3658  142.1993  163.8911 C.ar    1  UNL1        0.0032
     24 C         144.2894  142.6397  164.8385 C.ar    1  UNL1        0.0016
     25 C         143.1060  141.7537  165.0933 C.ar    1  UNL1        0.0193
     26 C         142.9992  140.4275  164.4007 C.ar    1  UNL1        0.0383
     27 C         142.6216  138.0469  162.5202 C.3     1  UNL1        0.2525
     28 O         143.9688  138.6609  162.7609 O.3     1  UNL1       -0.4714
@<TRIPOS>BOND
     1    27    28    1
     2    28    21    1
     3    21    22   ar
     4    22    23   ar
     5    23    24   ar
     6    24    25   ar
     7    25     1    1
     8     1     2   ar
     9     2    10    1
    10    10    11    2
    11    10    12   am
    12    12    13    1
    13    13    14    1
    14    14    15    1
    15    15    16    1
    16    16    17    1
    17    17    18    1
    18    18    19    1
    19     2     3   ar
    20     3     4   ar
    21     4     5   ar
    22     5     6   ar
    23     6     7   ar
    24     7     8   ar
    25     8     9   ar
    26    25    26   ar
    27    26    21   ar
    28     9     1   ar
    29    17    12    1
    30     9     4   ar
    31    19    20    1
@<TRIPOS>MOLECULE
*****
 28 31 0 0 0
SMALL
GASTEIGER

@<TRIPOS>ATOM
      1 C         141.8439  141.4187  166.7160 C.ar    1  UNL1        0.0685
      2 C         142.3237  140.0802  166.2383 C.ar    1  UNL1        0.0711
      3 C         142.7184  139.2736  167.4397 C.ar    1  UNL1        0.0235
      4 C         142.4826  140.1135  168.6599 C.ar    1  UNL1        0.0642
      5 C         142.6902  139.8423  170.1205 C.ar    1  UNL1        0.0176
      6 C         142.3574  140.8970  171.1338 C.ar    1  UNL1        0.0030
      7 C         141.8169  142.2228  170.6865 C.ar    1  UNL1        0.0190
      8 C         141.6093  142.4940  169.2259 C.ar    1  UNL1        0.0801
      9 N         141.9421  141.4393  168.2126 N.ar    1  UNL1       -0.3048
     10 C         142.3960  139.6279  164.8099 C.2     1  UNL1        0.2505
     11 O         143.6603  139.8190  164.0258 O.2     1  UNL1       -0.2699
     12 N         141.2040  138.9843  164.1658 N.am    1  UNL1       -0.2752
     13 C         139.9396  138.7931  164.9500 C.3     1  UNL1        0.0937
     14 C         138.7476  138.1496  164.3058 C.3     1  UNL1        0.0216
     15 C         138.8200  137.6972  162.8775 C.3     1  UNL1        0.0035
     16 C         140.0843  137.8884  162.0933 C.3     1  UNL1        0.0224
     17 C         141.2763  138.5319  162.7375 C.3     1  UNL1        0.1048
     18 C         142.5406  138.7231  161.9533 C.3     1  UNL1        0.1568
     19 O         143.5759  137.6381  161.9233 O.3     1  UNL1       -0.3802
     20 H         143.9509  137.5243  162.8106 H       1  UNL1        0.2105
     21 C         141.7854  144.3049  163.9926 C.ar    1  UNL1        0.1388
     22 C         140.3687  144.7823  164.1158 C.ar    1  UNL1        0.0369
     23 C         139.4438  144.1385  165.1057 C.ar    1  UNL1        0.0032
     24 C         139.9355  143.0173  165.9725 C.ar    1  UNL1        0.0016
     25 C         141.3522  142.5399  165.8493 C.ar    1  UNL1        0.0193
     26 C         142.2771  143.1837  164.8593 C.ar    1  UNL1        0.0383
     27 C         144.1171  144.4492  162.8558 C.3     1  UNL1        0.2525
     28 O         142.7103  144.9487  163.0027 O.3     1  UNL1       -0.4714
@<TRIPOS>BOND
     1    27    28    1
     2    28    21    1
     3    21    22   ar
     4    22    23   ar
     5    23    24   ar
     6    24    25   ar
     7    25     1    1
     8     1     2   ar
     9     2    10    1
    10    10    11    2
    11    10    12   am
    12    12    13    1
    13    13    14    1
    14    14    15    1
    15    15    16    1
    16    16    17    1
    17    17    18    1
    18    18    19    1
    19     2     3   ar
    20     3     4   ar
    21     4     5   ar
    22     5     6   ar
    23     6     7   ar
    24     7     8   ar
    25     8     9   ar
    26    25    26   ar
    27    26    21   ar
    28     9     1   ar
    29    17    12    1
    30     9     4   ar
    31    19    20    1
