@<TRIPOS>MOLECULE
*****
 33 37 0 0 0
SMALL
GASTEIGER

@<TRIPOS>ATOM
      1 C         142.9619  138.9932  157.8073 C.2     1  UNL1        0.2696
      2 O         143.0213  140.2201  156.9464 O.2     1  UNL1       -0.2682
      3 N         143.3144  139.0804  159.2627 N.am    1  UNL1       -0.2745
      4 C         143.2550  137.8535  160.1236 C.3     1  UNL1        0.0975
      5 C         143.6074  137.9408  161.5789 C.3     1  UNL1        0.0651
      6 C         144.0193  139.2549  162.1734 C.3     1  UNL1        0.1693
      7 C         144.0786  140.4818  161.3125 C.3     1  UNL1        0.0651
      8 C         143.7262  140.3946  159.8571 C.3     1  UNL1        0.0975
      9 C         139.9597  138.1977  156.8055 C.3     1  UNL1        0.0744
     10 C         141.1701  137.3134  156.7523 C.ar    1  UNL1        0.1471
     11 O         141.2131  135.9082  156.2294 O.2     1  UNL1       -0.4388
     12 C         142.6196  135.4053  156.3666 C.ar    1  UNL1        0.2294
     13 N         143.4459  136.4997  156.9744 N.ar    1  UNL1       -0.2040
     14 C         142.5501  137.6790  157.2128 C.ar    1  UNL1        0.1679
     15 C         143.1132  134.0465  155.9663 C.ar    1  UNL1        0.0536
     16 C         142.6379  133.4226  154.6878 C.ar    1  UNL1        0.0046
     17 C         143.1315  132.0638  154.2875 C.ar    1  UNL1        0.0002
     18 C         144.1003  131.3290  155.1659 C.ar    1  UNL1        0.0000
     19 C         144.5755  131.9530  156.4445 C.ar    1  UNL1        0.0002
     20 C         144.0820  133.3117  156.8447 C.ar    1  UNL1        0.0046
     21 O         144.3717  139.3421  163.6289 O.3     1  UNL1       -0.4791
     22 C         143.2926  139.5438  164.6511 C.ar    1  UNL1        0.1384
     23 C         143.4364  138.9492  166.0207 C.ar    1  UNL1        0.0366
     24 C         142.3573  139.1508  167.0428 C.ar    1  UNL1        0.0002
     25 C         141.1345  139.9471  166.6954 C.ar    1  UNL1       -0.0059
     26 C         140.9907  140.5416  165.3259 C.ar    1  UNL1        0.0002
     27 C         142.0698  140.3400  164.3037 C.ar    1  UNL1        0.0366
     28 C         140.0553  140.1487  167.7176 C.3     1  UNL1        0.0991
     29 N         140.1000  141.3379  168.6308 N.3     1  UNL1       -0.2690
     30 C         140.6133  142.7023  168.2772 C.3     1  UNL1        0.0724
     31 C         140.4698  143.5791  169.4857 C.3     1  UNL1        0.0188
     32 C         139.8678  142.7567  170.5863 C.3     1  UNL1        0.0188
     33 C         139.6392  141.3715  170.0579 C.3     1  UNL1        0.0724
@<TRIPOS>BOND
     1     9    10    1
     2    10    11   ar
     3    11    12   ar
     4    12    15    1
     5    15    16   ar
     6    16    17   ar
     7    17    18   ar
     8    18    19   ar
     9    19    20   ar
    10    12    13   ar
    11    13    14   ar
    12    14     1    1
    13     1     2    2
    14     1     3   am
    15     3     4    1
    16     4     5    1
    17     5     6    1
    18     6    21    1
    19    21    22    1
    20    22    23   ar
    21    23    24   ar
    22    24    25   ar
    23    25    28    1
    24    28    29    1
    25    29    30    1
    26    30    31    1
    27    31    32    1
    28    32    33    1
    29    25    26   ar
    30    26    27   ar
    31     6     7    1
    32     7     8    1
    33    14    10   ar
    34     8     3    1
    35    20    15   ar
    36    27    22   ar
    37    33    29    1
@<TRIPOS>MOLECULE
*****
 33 37 0 0 0
SMALL
GASTEIGER

@<TRIPOS>ATOM
      1 C         142.0510  139.3034  158.7345 C.2     1  UNL1        0.2696
      2 O         143.0485  140.3704  158.3930 O.2     1  UNL1       -0.2682
      3 N         141.0784  139.5173  159.8562 N.am    1  UNL1       -0.2745
      4 C         140.0810  138.4503  160.1977 C.3     1  UNL1        0.0975
      5 C         139.1084  138.6642  161.3194 C.3     1  UNL1        0.0651
      6 C         139.1333  139.9451  162.0996 C.3     1  UNL1        0.1693
      7 C         140.1307  141.0121  161.7581 C.3     1  UNL1        0.0651
      8 C         141.1033  140.7982  160.6364 C.3     1  UNL1        0.0975
      9 C         139.8536  138.4813  156.4662 C.3     1  UNL1        0.0744
     10 C         141.0161  137.6447  156.9116 C.ar    1  UNL1        0.1471
     11 O         141.3728  136.2832  156.3927 O.2     1  UNL1       -0.4388
     12 C         142.6033  135.8197  157.1146 C.ar    1  UNL1        0.2294
     13 N         143.0071  136.8946  158.0797 N.ar    1  UNL1       -0.2040
     14 C         142.0262  138.0225  157.9543 C.ar    1  UNL1        0.1679
     15 C         143.3064  134.5109  156.9077 C.ar    1  UNL1        0.0536
     16 C         143.2305  133.8207  155.5781 C.ar    1  UNL1        0.0046
     17 C         143.9337  132.5121  155.3712 C.ar    1  UNL1        0.0002
     18 C         144.7127  131.8935  156.4939 C.ar    1  UNL1        0.0000
     19 C         144.7886  132.5837  157.8235 C.ar    1  UNL1        0.0002
     20 C         144.0855  133.8924  158.0304 C.ar    1  UNL1        0.0046
     21 O         138.1606  140.1589  163.2214 O.3     1  UNL1       -0.4791
     22 C         138.6465  140.1876  164.6402 C.ar    1  UNL1        0.1384
     23 C         138.2151  139.1208  165.6025 C.ar    1  UNL1        0.0366
     24 C         138.7011  139.1495  167.0212 C.ar    1  UNL1        0.0002
     25 C         139.6184  140.2449  167.4778 C.ar    1  UNL1       -0.0059
     26 C         140.0498  141.3116  166.5156 C.ar    1  UNL1        0.0002
     27 C         139.5639  141.2830  165.0968 C.ar    1  UNL1        0.0366
     28 C         140.1044  140.2736  168.8967 C.3     1  UNL1        0.0991
     29 N         141.2432  141.1710  169.2814 N.3     1  UNL1       -0.2690
     30 C         142.7018  140.8716  169.1001 C.3     1  UNL1        0.0724
     31 C         143.4833  142.0409  169.6216 C.3     1  UNL1        0.0188
     32 C         142.5077  143.0630  170.1251 C.3     1  UNL1        0.0188
     33 C         141.1232  142.5254  169.9149 C.3     1  UNL1        0.0724
@<TRIPOS>BOND
     1     9    10    1
     2    10    11   ar
     3    11    12   ar
     4    12    15    1
     5    15    16   ar
     6    16    17   ar
     7    17    18   ar
     8    18    19   ar
     9    19    20   ar
    10    12    13   ar
    11    13    14   ar
    12    14     1    1
    13     1     2    2
    14     1     3   am
    15     3     4    1
    16     4     5    1
    17     5     6    1
    18     6    21    1
    19    21    22    1
    20    22    23   ar
    21    23    24   ar
    22    24    25   ar
    23    25    28    1
    24    28    29    1
    25    29    30    1
    26    30    31    1
    27    31    32    1
    28    32    33    1
    29    25    26   ar
    30    26    27   ar
    31     6     7    1
    32     7     8    1
    33    14    10   ar
    34     8     3    1
    35    20    15   ar
    36    27    22   ar
    37    33    29    1
@<TRIPOS>MOLECULE
*****
 33 37 0 0 0
SMALL
GASTEIGER

@<TRIPOS>ATOM
      1 C         140.4914  140.4863  158.4487 C.2     1  UNL1        0.2696
      2 O         140.3325  141.5831  157.4379 O.2     1  UNL1       -0.2682
      3 N         139.7529  140.5552  159.7525 N.am    1  UNL1       -0.2745
      4 C         139.9119  139.4584  160.7633 C.3     1  UNL1        0.0975
      5 C         139.1734  139.5272  162.0670 C.3     1  UNL1        0.0651
      6 C         138.2759  140.6929  162.3600 C.3     1  UNL1        0.1693
      7 C         138.1169  141.7897  161.3492 C.3     1  UNL1        0.0651
      8 C         138.8554  141.7208  160.0454 C.3     1  UNL1        0.0975
      9 C         143.4959  140.0321  159.6389 C.3     1  UNL1        0.0744
     10 C         142.7700  139.1119  158.7029 C.ar    1  UNL1        0.1471
     11 O         143.2975  137.8213  158.1495 O.2     1  UNL1       -0.4388
     12 C         142.2425  137.2325  157.2604 C.ar    1  UNL1        0.2294
     13 N         141.0630  138.1592  157.2643 N.ar    1  UNL1       -0.2040
     14 C         141.3889  139.3207  158.1558 C.ar    1  UNL1        0.1679
     15 C         142.3486  135.9434  156.5009 C.ar    1  UNL1        0.0536
     16 C         143.4960  135.0126  156.7596 C.ar    1  UNL1        0.0046
     17 C         143.6020  133.7235  156.0000 C.ar    1  UNL1        0.0002
     18 C         142.5605  133.3652  154.9817 C.ar    1  UNL1        0.0000
     19 C         141.4130  134.2959  154.7230 C.ar    1  UNL1        0.0002
     20 C         141.3071  135.5850  155.4826 C.ar    1  UNL1        0.0046
     21 O         137.5373  140.7617  163.6638 O.3     1  UNL1       -0.4791
     22 C         138.2795  140.5908  164.9561 C.ar    1  UNL1        0.1384
     23 C         139.2765  141.6239  165.3907 C.ar    1  UNL1        0.0366
     24 C         140.0186  141.4529  166.6829 C.ar    1  UNL1        0.0002
     25 C         139.7637  140.2491  167.5406 C.ar    1  UNL1       -0.0059
     26 C         138.7668  139.2161  167.1061 C.ar    1  UNL1        0.0002
     27 C         138.0246  139.3870  165.8138 C.ar    1  UNL1        0.0366
     28 C         140.5059  140.0781  168.8330 C.3     1  UNL1        0.0991
     29 N         141.5021  141.1117  169.2681 N.3     1  UNL1       -0.2690
     30 C         141.1976  142.3567  170.0474 C.3     1  UNL1        0.0724
     31 C         142.4850  143.0962  170.2612 C.3     1  UNL1        0.0188
     32 C         143.5852  142.3082  169.6141 C.3     1  UNL1        0.0188
     33 C         142.9778  141.0817  169.0003 C.3     1  UNL1        0.0724
@<TRIPOS>BOND
     1     9    10    1
     2    10    11   ar
     3    11    12   ar
     4    12    15    1
     5    15    16   ar
     6    16    17   ar
     7    17    18   ar
     8    18    19   ar
     9    19    20   ar
    10    12    13   ar
    11    13    14   ar
    12    14     1    1
    13     1     2    2
    14     1     3   am
    15     3     4    1
    16     4     5    1
    17     5     6    1
    18     6    21    1
    19    21    22    1
    20    22    23   ar
    21    23    24   ar
    22    24    25   ar
    23    25    28    1
    24    28    29    1
    25    29    30    1
    26    30    31    1
    27    31    32    1
    28    32    33    1
    29    25    26   ar
    30    26    27   ar
    31     6     7    1
    32     7     8    1
    33    14    10   ar
    34     8     3    1
    35    20    15   ar
    36    27    22   ar
    37    33    29    1
@<TRIPOS>MOLECULE
*****
 33 37 0 0 0
SMALL
GASTEIGER

@<TRIPOS>ATOM
      1 C         140.1752  139.3690  157.6596 C.2     1  UNL1        0.2696
      2 O         139.7487  140.3552  156.6129 O.2     1  UNL1       -0.2682
      3 N         139.5353  139.3913  159.0161 N.am    1  UNL1       -0.2745
      4 C         139.9618  138.4051  160.0627 C.3     1  UNL1        0.0975
      5 C         139.3220  138.4274  161.4192 C.3     1  UNL1        0.0651
      6 C         138.2557  139.4359  161.7290 C.3     1  UNL1        0.1693
      7 C         137.8292  140.4221  160.6824 C.3     1  UNL1        0.0651
      8 C         138.4690  140.3998  159.3259 C.3     1  UNL1        0.0975
      9 C         143.3497  139.6575  158.3590 C.3     1  UNL1        0.0744
     10 C         142.7006  138.4932  157.6713 C.ar    1  UNL1        0.1471
     11 O         143.3968  137.2570  157.1842 O.2     1  UNL1       -0.4388
     12 C         142.3679  136.3604  156.5617 C.ar    1  UNL1        0.2294
     13 N         141.0359  137.0424  156.6640 N.ar    1  UNL1       -0.2040
     14 C         141.2415  138.3605  157.3497 C.ar    1  UNL1        0.1679
     15 C         142.6258  135.0174  155.9452 C.ar    1  UNL1        0.0536
     16 C         143.6870  134.1226  156.5135 C.ar    1  UNL1        0.0046
     17 C         143.9449  132.7797  155.8969 C.ar    1  UNL1        0.0002
     18 C         143.1415  132.3317  154.7121 C.ar    1  UNL1        0.0000
     19 C         142.0803  133.2265  154.1438 C.ar    1  UNL1        0.0002
     20 C         141.8224  134.5694  154.7603 C.ar    1  UNL1        0.0046
     21 O         137.6158  139.4582  163.0856 O.3     1  UNL1       -0.4791
     22 C         138.4513  139.7142  164.3048 C.ar    1  UNL1        0.1384
     23 C         138.1182  139.0329  165.5990 C.ar    1  UNL1        0.0366
     24 C         138.9536  139.2890  166.8180 C.ar    1  UNL1        0.0002
     25 C         140.1222  140.2264  166.7431 C.ar    1  UNL1       -0.0059
     26 C         140.4553  140.9077  165.4490 C.ar    1  UNL1        0.0002
     27 C         139.6199  140.6516  164.2298 C.ar    1  UNL1        0.0366
     28 C         140.9578  140.4825  167.9623 C.3     1  UNL1        0.0991
     29 N         140.6153  141.6175  168.8813 N.3     1  UNL1       -0.2690
     30 C         140.7053  143.0777  168.5505 C.3     1  UNL1        0.0724
     31 C         140.2684  143.8542  169.7572 C.3     1  UNL1        0.0188
     32 C         139.9083  142.8738  170.8338 C.3     1  UNL1        0.0188
     33 C         140.1227  141.4914  170.2926 C.3     1  UNL1        0.0724
@<TRIPOS>BOND
     1     9    10    1
     2    10    11   ar
     3    11    12   ar
     4    12    15    1
     5    15    16   ar
     6    16    17   ar
     7    17    18   ar
     8    18    19   ar
     9    19    20   ar
    10    12    13   ar
    11    13    14   ar
    12    14     1    1
    13     1     2    2
    14     1     3   am
    15     3     4    1
    16     4     5    1
    17     5     6    1
    18     6    21    1
    19    21    22    1
    20    22    23   ar
    21    23    24   ar
    22    24    25   ar
    23    25    28    1
    24    28    29    1
    25    29    30    1
    26    30    31    1
    27    31    32    1
    28    32    33    1
    29    25    26   ar
    30    26    27   ar
    31     6     7    1
    32     7     8    1
    33    14    10   ar
    34     8     3    1
    35    20    15   ar
    36    27    22   ar
    37    33    29    1
@<TRIPOS>MOLECULE
*****
 33 37 0 0 0
SMALL
GASTEIGER

@<TRIPOS>ATOM
      1 C         141.5574  140.0698  162.7925 C.2     1  UNL1        0.2696
      2 O         140.9054  138.7888  162.3637 O.2     1  UNL1       -0.2682
      3 N         141.9460  141.0933  161.7672 N.am    1  UNL1       -0.2745
      4 C         142.5981  142.3743  162.1959 C.3     1  UNL1        0.0975
      5 C         142.9867  143.3978  161.1706 C.3     1  UNL1        0.0651
      6 C         142.7233  143.1404  159.7165 C.3     1  UNL1        0.1693
      7 C         142.0712  141.8594  159.2878 C.3     1  UNL1        0.0651
      8 C         141.6826  140.8359  160.3131 C.3     1  UNL1        0.0975
      9 C         144.3761  139.5497  164.3527 C.3     1  UNL1        0.0744
     10 C         143.1165  140.0881  164.9637 C.ar    1  UNL1        0.1471
     11 O         142.9313  140.4821  166.3991 O.2     1  UNL1       -0.4388
     12 C         141.5212  140.9646  166.5692 C.ar    1  UNL1        0.2294
     13 N         140.8349  140.8689  165.2388 N.ar    1  UNL1       -0.2040
     14 C         141.8208  140.3272  164.2466 C.ar    1  UNL1        0.1679
     15 C         140.9055  141.4566  167.8455 C.ar    1  UNL1        0.0536
     16 C         140.1905  140.4984  168.7513 C.ar    1  UNL1        0.0046
     17 C         139.5749  140.9903  170.0276 C.ar    1  UNL1        0.0002
     18 C         139.6742  142.4404  170.3981 C.ar    1  UNL1        0.0000
     19 C         140.3892  143.3986  169.4922 C.ar    1  UNL1        0.0002
     20 C         141.0049  142.9067  168.2160 C.ar    1  UNL1        0.0046
     21 O         143.1119  144.1640  158.6912 O.3     1  UNL1       -0.4791
     22 C         142.0516  144.9075  157.9343 C.ar    1  UNL1        0.1384
     23 C         142.2171  145.1610  156.4651 C.ar    1  UNL1        0.0366
     24 C         141.1568  145.9045  155.7083 C.ar    1  UNL1        0.0002
     25 C         139.9310  146.3944  156.4205 C.ar    1  UNL1       -0.0059
     26 C         139.7655  146.1409  157.8895 C.ar    1  UNL1        0.0002
     27 C         140.8258  145.3974  158.6465 C.ar    1  UNL1        0.0366
     28 C         138.8706  147.1379  155.6636 C.3     1  UNL1        0.0991
     29 N         139.0853  148.5739  155.2870 N.3     1  UNL1       -0.2690
     30 C         138.4798  149.7645  155.9696 C.3     1  UNL1        0.0724
     31 C         138.9635  150.9978  155.2662 C.3     1  UNL1        0.0188
     32 C         139.8680  150.5695  154.1488 C.3     1  UNL1        0.0188
     33 C         139.9433  149.0715  154.1616 C.3     1  UNL1        0.0724
@<TRIPOS>BOND
     1     9    10    1
     2    10    11   ar
     3    11    12   ar
     4    12    15    1
     5    15    16   ar
     6    16    17   ar
     7    17    18   ar
     8    18    19   ar
     9    19    20   ar
    10    12    13   ar
    11    13    14   ar
    12    14     1    1
    13     1     2    2
    14     1     3   am
    15     3     4    1
    16     4     5    1
    17     5     6    1
    18     6    21    1
    19    21    22    1
    20    22    23   ar
    21    23    24   ar
    22    24    25   ar
    23    25    28    1
    24    28    29    1
    25    29    30    1
    26    30    31    1
    27    31    32    1
    28    32    33    1
    29    25    26   ar
    30    26    27   ar
    31     6     7    1
    32     7     8    1
    33    14    10   ar
    34     8     3    1
    35    20    15   ar
    36    27    22   ar
    37    33    29    1
@<TRIPOS>MOLECULE
*****
 33 37 0 0 0
SMALL
GASTEIGER

@<TRIPOS>ATOM
      1 C         142.4578  138.7979  157.4843 C.2     1  UNL1        0.2696
      2 O         143.5073  139.6770  156.8714 O.2     1  UNL1       -0.2682
      3 N         141.5480  139.3437  158.5447 N.am    1  UNL1       -0.2745
      4 C         140.4985  138.4646  159.1576 C.3     1  UNL1        0.0975
      5 C         139.5887  139.0103  160.2180 C.3     1  UNL1        0.0651
      6 C         139.7285  140.4352  160.6655 C.3     1  UNL1        0.1693
      7 C         140.7780  141.3143  160.0526 C.3     1  UNL1        0.0651
      8 C         141.6878  140.7686  158.9922 C.3     1  UNL1        0.0975
      9 C         140.2736  137.6663  155.3398 C.3     1  UNL1        0.0744
     10 C         141.3141  136.8529  156.0511 C.ar    1  UNL1        0.1471
     11 O         141.5333  135.3766  155.9016 O.2     1  UNL1       -0.4388
     12 C         142.6727  134.9843  156.7949 C.ar    1  UNL1        0.2294
     13 N         143.1576  136.2182  157.4965 N.ar    1  UNL1       -0.2040
     14 C         142.3180  137.3731  157.0368 C.ar    1  UNL1        0.1679
     15 C         143.2293  133.6009  156.9579 C.ar    1  UNL1        0.0536
     16 C         144.4677  133.3823  157.7755 C.ar    1  UNL1        0.0046
     17 C         145.0243  131.9990  157.9385 C.ar    1  UNL1        0.0002
     18 C         144.3425  130.8343  157.2838 C.ar    1  UNL1        0.0000
     19 C         143.1041  131.0529  156.4662 C.ar    1  UNL1        0.0002
     20 C         142.5475  132.4362  156.3033 C.ar    1  UNL1        0.0046
     21 O         138.8187  140.9810  161.7259 O.3     1  UNL1       -0.4791
     22 C         139.1416  140.7655  163.1748 C.ar    1  UNL1        0.1384
     23 C         140.5066  141.1032  163.6973 C.ar    1  UNL1        0.0366
     24 C         140.8294  140.8877  165.1461 C.ar    1  UNL1        0.0002
     25 C         139.7874  140.3346  166.0725 C.ar    1  UNL1       -0.0059
     26 C         138.4226  139.9970  165.5501 C.ar    1  UNL1        0.0002
     27 C         138.0996  140.2124  164.1012 C.ar    1  UNL1        0.0366
     28 C         140.1103  140.1191  167.5215 C.3     1  UNL1        0.0991
     29 N         140.1165  141.2816  168.4694 N.3     1  UNL1       -0.2690
     30 C         139.6341  141.2638  169.8896 C.3     1  UNL1        0.0724
     31 C         139.8256  142.6372  170.4615 C.3     1  UNL1        0.0188
     32 C         140.4265  143.5039  169.3947 C.3     1  UNL1        0.0188
     33 C         140.6063  142.6661  168.1636 C.3     1  UNL1        0.0724
@<TRIPOS>BOND
     1     9    10    1
     2    10    11   ar
     3    11    12   ar
     4    12    15    1
     5    15    16   ar
     6    16    17   ar
     7    17    18   ar
     8    18    19   ar
     9    19    20   ar
    10    12    13   ar
    11    13    14   ar
    12    14     1    1
    13     1     2    2
    14     1     3   am
    15     3     4    1
    16     4     5    1
    17     5     6    1
    18     6    21    1
    19    21    22    1
    20    22    23   ar
    21    23    24   ar
    22    24    25   ar
    23    25    28    1
    24    28    29    1
    25    29    30    1
    26    30    31    1
    27    31    32    1
    28    32    33    1
    29    25    26   ar
    30    26    27   ar
    31     6     7    1
    32     7     8    1
    33    14    10   ar
    34     8     3    1
    35    20    15   ar
    36    27    22   ar
    37    33    29    1
@<TRIPOS>MOLECULE
*****
 33 37 0 0 0
SMALL
GASTEIGER

@<TRIPOS>ATOM
      1 C         143.5590  141.8178  161.4595 C.2     1  UNL1        0.2696
      2 O         144.0506  143.2274  161.6060 O.2     1  UNL1       -0.2682
      3 N         143.5196  141.1743  160.1051 N.am    1  UNL1       -0.2745
      4 C         143.0281  139.7648  159.9585 C.3     1  UNL1        0.0975
      5 C         142.9887  139.1213  158.6041 C.3     1  UNL1        0.0651
      6 C         143.4409  139.8873  157.3964 C.3     1  UNL1        0.1693
      7 C         143.9324  141.2969  157.5429 C.3     1  UNL1        0.0651
      8 C         143.9718  141.9404  158.8973 C.3     1  UNL1        0.0975
      9 C         145.4741  140.7232  163.8645 C.3     1  UNL1        0.0744
     10 C         143.9872  140.5486  163.7727 C.ar    1  UNL1        0.1471
     11 O         143.1194  139.8403  164.7703 O.2     1  UNL1       -0.4388
     12 C         141.7028  139.9056  164.2813 C.ar    1  UNL1        0.2294
     13 N         141.6950  140.6543  162.9816 N.ar    1  UNL1       -0.2040
     14 C         143.1068  141.0518  162.6672 C.ar    1  UNL1        0.1679
     15 C         140.5043  139.3242  164.9711 C.ar    1  UNL1        0.0536
     16 C         139.8832  140.0451  166.1306 C.ar    1  UNL1        0.0046
     17 C         138.6848  139.4637  166.8203 C.ar    1  UNL1        0.0002
     18 C         138.1075  138.1614  166.3505 C.ar    1  UNL1        0.0000
     19 C         138.7286  137.4405  165.1911 C.ar    1  UNL1        0.0002
     20 C         139.9270  138.0219  164.5014 C.ar    1  UNL1        0.0046
     21 O         143.4015  139.2438  156.0419 O.3     1  UNL1       -0.4791
     22 C         143.0005  137.8047  155.9067 C.ar    1  UNL1        0.1384
     23 C         144.0504  136.7455  155.7456 C.ar    1  UNL1        0.0366
     24 C         143.6494  135.3065  155.6104 C.ar    1  UNL1        0.0002
     25 C         142.1985  134.9266  155.6364 C.ar    1  UNL1       -0.0059
     26 C         141.1487  135.9857  155.7975 C.ar    1  UNL1        0.0002
     27 C         141.5497  137.4248  155.9327 C.ar    1  UNL1        0.0366
     28 C         141.7975  133.4875  155.5012 C.3     1  UNL1        0.0991
     29 N         142.8090  132.4028  155.7257 N.3     1  UNL1       -0.2690
     30 C         143.2519  131.8722  157.0570 C.3     1  UNL1        0.0724
     31 C         144.2718  130.7998  156.8125 C.3     1  UNL1        0.0188
     32 C         144.4591  130.6675  155.3301 C.3     1  UNL1        0.0188
     33 C         143.5551  131.6582  154.6584 C.3     1  UNL1        0.0724
@<TRIPOS>BOND
     1     9    10    1
     2    10    11   ar
     3    11    12   ar
     4    12    15    1
     5    15    16   ar
     6    16    17   ar
     7    17    18   ar
     8    18    19   ar
     9    19    20   ar
    10    12    13   ar
    11    13    14   ar
    12    14     1    1
    13     1     2    2
    14     1     3   am
    15     3     4    1
    16     4     5    1
    17     5     6    1
    18     6    21    1
    19    21    22    1
    20    22    23   ar
    21    23    24   ar
    22    24    25   ar
    23    25    28    1
    24    28    29    1
    25    29    30    1
    26    30    31    1
    27    31    32    1
    28    32    33    1
    29    25    26   ar
    30    26    27   ar
    31     6     7    1
    32     7     8    1
    33    14    10   ar
    34     8     3    1
    35    20    15   ar
    36    27    22   ar
    37    33    29    1
@<TRIPOS>MOLECULE
*****
 33 37 0 0 0
SMALL
GASTEIGER

@<TRIPOS>ATOM
      1 C         139.0407  139.7457  159.7537 C.2     1  UNL1        0.2696
      2 O         137.7110  139.9144  159.0803 O.2     1  UNL1       -0.2682
      3 N         140.1458  139.0083  159.0573 N.am    1  UNL1       -0.2745
      4 C         141.4755  138.8396  159.7307 C.3     1  UNL1        0.0975
      5 C         142.5806  138.1023  159.0343 C.3     1  UNL1        0.0651
      6 C         142.3561  137.5337  157.6645 C.3     1  UNL1        0.1693
      7 C         141.0264  137.7024  156.9911 C.3     1  UNL1        0.0651
      8 C         139.9213  138.4398  157.6875 C.3     1  UNL1        0.0975
      9 C         140.2348  142.7066  160.4294 C.3     1  UNL1        0.0744
     10 C         139.8141  141.6753  161.4341 C.ar    1  UNL1        0.1471
     11 O         139.8684  141.8238  162.9257 O.2     1  UNL1       -0.4388
     12 C         139.3531  140.5546  163.5370 C.ar    1  UNL1        0.2294
     13 N         138.9804  139.6217  162.4231 N.ar    1  UNL1       -0.2040
     14 C         139.2652  140.3142  161.1235 C.ar    1  UNL1        0.1679
     15 C         139.2319  140.2686  165.0045 C.ar    1  UNL1        0.0536
     16 C         138.2848  139.2101  165.4866 C.ar    1  UNL1        0.0046
     17 C         138.1636  138.9241  166.9541 C.ar    1  UNL1        0.0002
     18 C         138.9896  139.6966  167.9394 C.ar    1  UNL1        0.0000
     19 C         139.9367  140.7551  167.4573 C.ar    1  UNL1        0.0002
     20 C         140.0579  141.0411  165.9899 C.ar    1  UNL1        0.0046
     21 O         143.4613  136.7963  156.9680 O.3     1  UNL1       -0.4791
     22 C         143.2082  135.4343  156.3930 C.ar    1  UNL1        0.1384
     23 C         142.9009  135.2819  154.9327 C.ar    1  UNL1        0.0366
     24 C         142.6478  133.9198  154.3578 C.ar    1  UNL1        0.0002
     25 C         142.7020  132.7101  155.2431 C.ar    1  UNL1       -0.0059
     26 C         143.0093  132.8625  156.7033 C.ar    1  UNL1        0.0002
     27 C         143.2624  134.2246  157.2783 C.ar    1  UNL1        0.0366
     28 C         142.4489  131.3479  154.6681 C.3     1  UNL1        0.0991
     29 N         143.2327  130.1680  155.1616 N.3     1  UNL1       -0.2690
     30 C         144.6642  129.8615  154.8351 C.3     1  UNL1        0.0724
     31 C         145.0388  128.5916  155.5400 C.3     1  UNL1        0.0188
     32 C         143.8387  128.1132  156.3023 C.3     1  UNL1        0.0188
     33 C         142.7224  129.0875  156.0684 C.3     1  UNL1        0.0724
@<TRIPOS>BOND
     1     9    10    1
     2    10    11   ar
     3    11    12   ar
     4    12    15    1
     5    15    16   ar
     6    16    17   ar
     7    17    18   ar
     8    18    19   ar
     9    19    20   ar
    10    12    13   ar
    11    13    14   ar
    12    14     1    1
    13     1     2    2
    14     1     3   am
    15     3     4    1
    16     4     5    1
    17     5     6    1
    18     6    21    1
    19    21    22    1
    20    22    23   ar
    21    23    24   ar
    22    24    25   ar
    23    25    28    1
    24    28    29    1
    25    29    30    1
    26    30    31    1
    27    31    32    1
    28    32    33    1
    29    25    26   ar
    30    26    27   ar
    31     6     7    1
    32     7     8    1
    33    14    10   ar
    34     8     3    1
    35    20    15   ar
    36    27    22   ar
    37    33    29    1
@<TRIPOS>MOLECULE
*****
 33 37 0 0 0
SMALL
GASTEIGER

@<TRIPOS>ATOM
      1 C         138.7300  140.9342  163.2315 C.2     1  UNL1        0.2696
      2 O         137.2387  141.0956  163.2288 O.2     1  UNL1       -0.2682
      3 N         139.4949  141.0110  161.9435 N.am    1  UNL1       -0.2745
      4 C         140.9862  140.8497  161.9461 C.3     1  UNL1        0.0975
      5 C         141.7511  140.9264  160.6581 C.3     1  UNL1        0.0651
      6 C         141.0247  141.1645  159.3674 C.3     1  UNL1        0.1693
      7 C         139.5335  141.3258  159.3648 C.3     1  UNL1        0.0651
      8 C         138.7685  141.2490  160.6528 C.3     1  UNL1        0.0975
      9 C         139.5308  138.0246  164.4735 C.3     1  UNL1        0.0744
     10 C         139.8245  139.3587  165.0930 C.ar    1  UNL1        0.1471
     11 O         140.5378  139.5898  166.3921 O.2     1  UNL1       -0.4388
     12 C         140.6105  141.0699  166.6242 C.ar    1  UNL1        0.2294
     13 N         139.9422  141.7537  165.4685 N.ar    1  UNL1       -0.2040
     14 C         139.4564  140.6962  164.5221 C.ar    1  UNL1        0.1679
     15 C         141.2409  141.7474  167.8048 C.ar    1  UNL1        0.0536
     16 C         142.6757  141.4754  168.1477 C.ar    1  UNL1        0.0046
     17 C         143.3060  142.1528  169.3282 C.ar    1  UNL1        0.0002
     18 C         142.5016  143.1022  170.1659 C.ar    1  UNL1        0.0000
     19 C         141.0669  143.3741  169.8230 C.ar    1  UNL1        0.0002
     20 C         140.4366  142.6967  168.6425 C.ar    1  UNL1        0.0046
     21 O         141.7897  141.2412  158.0794 O.3     1  UNL1       -0.4791
     22 C         142.3415  139.9918  157.4592 C.ar    1  UNL1        0.1384
     23 C         141.9940  138.6515  158.0361 C.ar    1  UNL1        0.0366
     24 C         142.5457  137.4022  157.4159 C.ar    1  UNL1        0.0002
     25 C         143.4449  137.4932  156.2187 C.ar    1  UNL1       -0.0059
     26 C         143.7924  138.8334  155.6419 C.ar    1  UNL1        0.0002
     27 C         143.2407  140.0828  156.2621 C.ar    1  UNL1        0.0366
     28 C         143.9967  136.2438  155.5985 C.3     1  UNL1        0.0991
     29 N         143.3319  134.9234  155.8529 N.3     1  UNL1       -0.2690
     30 C         142.0906  134.4171  155.1800 C.3     1  UNL1        0.0724
     31 C         141.7832  133.0584  155.7361 C.3     1  UNL1        0.0188
     32 C         142.8346  132.7249  156.7526 C.3     1  UNL1        0.0188
     33 C         143.7917  133.8775  156.8249 C.3     1  UNL1        0.0724
@<TRIPOS>BOND
     1     9    10    1
     2    10    11   ar
     3    11    12   ar
     4    12    15    1
     5    15    16   ar
     6    16    17   ar
     7    17    18   ar
     8    18    19   ar
     9    19    20   ar
    10    12    13   ar
    11    13    14   ar
    12    14     1    1
    13     1     2    2
    14     1     3   am
    15     3     4    1
    16     4     5    1
    17     5     6    1
    18     6    21    1
    19    21    22    1
    20    22    23   ar
    21    23    24   ar
    22    24    25   ar
    23    25    28    1
    24    28    29    1
    25    29    30    1
    26    30    31    1
    27    31    32    1
    28    32    33    1
    29    25    26   ar
    30    26    27   ar
    31     6     7    1
    32     7     8    1
    33    14    10   ar
    34     8     3    1
    35    20    15   ar
    36    27    22   ar
    37    33    29    1
