@<TRIPOS>MOLECULE
*****
 24 26 0 0 0
SMALL
GASTEIGER

@<TRIPOS>ATOM
      1 C         139.6530  141.9018  164.9932 C.ar    1  UNL1       -0.0002
      2 C         138.4854  140.9849  164.7787 C.ar    1  UNL1       -0.0000
      3 C         138.2470  139.8414  165.7198 C.ar    1  UNL1       -0.0003
      4 C         139.1761  139.6149  166.8754 C.ar    1  UNL1       -0.0025
      5 C         140.3438  140.5319  167.0898 C.ar    1  UNL1       -0.0022
      6 C         140.5822  141.6753  166.1487 C.ar    1  UNL1       -0.0025
      7 C         141.2729  140.3053  168.2454 C.3     1  UNL1        0.1060
      8 C         142.0075  139.5603  167.1705 C.3     1  UNL1        0.0290
      9 C         140.2156  141.1290  168.9189 C.3     1  UNL1        0.0388
     10 C         140.3426  141.4674  170.3747 C.3     1  UNL1        0.0671
     11 S         141.5268  140.9821  171.1570 S.3     1  UNL1       -0.0807
     12 C         142.5842  140.1585  170.4835 C.2     1  UNL1        0.1482
     13 N         143.7685  139.6732  171.2657 N.pl3   1  UNL1       -0.3380
     14 N         142.4572  139.8201  169.0277 N.2     1  UNL1       -0.2509
     15 H         143.8518  139.8953  172.2212 H       1  UNL1        0.1442
     16 H         144.4624  139.1326  170.8236 H       1  UNL1        0.1442
     17 C         141.4967  144.4137  162.5353 C.ar    1  UNL1        0.1387
     18 C         140.3685  145.3322  162.1699 C.ar    1  UNL1        0.0369
     19 C         139.0017  145.1072  162.7456 C.ar    1  UNL1        0.0031
     20 C         138.7632  143.9637  163.6867 C.ar    1  UNL1        0.0002
     21 C         139.8915  143.0453  164.0521 C.ar    1  UNL1        0.0030
     22 C         141.2582  143.2703  163.4763 C.ar    1  UNL1        0.0369
     23 C         144.0806  144.2328  162.7364 C.3     1  UNL1        0.2525
     24 O         142.8634  144.6387  161.9596 O.3     1  UNL1       -0.4714
@<TRIPOS>BOND
     1    23    24    1
     2    24    17    1
     3    17    18   ar
     4    18    19   ar
     5    19    20   ar
     6    20    21   ar
     7    21     1    1
     8     1     2   ar
     9     2     3   ar
    10     3     4   ar
    11     4     5   ar
    12     5     7    1
    13     7     8    1
    14     7     9    1
    15     9    10    1
    16    10    11    1
    17    11    12    1
    18    12    13    1
    19    12    14    2
    20     5     6   ar
    21    21    22   ar
    22    22    17   ar
    23     6     1   ar
    24    14     7    1
    25    13    15    1
    26    13    16    1
@<TRIPOS>MOLECULE
*****
 24 26 0 0 0
SMALL
GASTEIGER

@<TRIPOS>ATOM
      1 C         138.9816  140.9509  165.1944 C.ar    1  UNL1       -0.0002
      2 C         138.1399  139.8238  165.7151 C.ar    1  UNL1       -0.0000
      3 C         138.4507  139.2092  167.0477 C.ar    1  UNL1       -0.0003
      4 C         139.6033  139.7218  167.8595 C.ar    1  UNL1       -0.0025
      5 C         140.4449  140.8489  167.3387 C.ar    1  UNL1       -0.0022
      6 C         140.1341  141.4634  166.0061 C.ar    1  UNL1       -0.0025
      7 C         141.5975  141.3615  168.1504 C.3     1  UNL1        0.1060
      8 C         142.3152  140.3845  167.2670 C.3     1  UNL1        0.0290
      9 C         140.4795  142.1604  168.7519 C.3     1  UNL1        0.0388
     10 C         140.7633  143.1326  169.8584 C.3     1  UNL1        0.0671
     11 S         142.1650  143.3059  170.3634 S.3     1  UNL1       -0.0807
     12 C         143.2830  142.5070  169.7619 C.2     1  UNL1        0.1482
     13 N         144.6848  142.6802  170.2668 N.pl3   1  UNL1       -0.3380
     14 N         142.9992  141.5347  168.6554 N.2     1  UNL1       -0.2509
     15 H         144.8711  143.3182  170.9930 H       1  UNL1        0.1442
     16 H         145.4186  142.1558  169.8720 H       1  UNL1        0.1442
     17 C         138.3630  143.6718  162.3723 C.ar    1  UNL1        0.1387
     18 C         138.0491  142.7946  161.1967 C.ar    1  UNL1        0.0369
     19 C         138.0461  141.3029  161.3537 C.ar    1  UNL1        0.0031
     20 C         138.3569  140.6883  162.6862 C.ar    1  UNL1        0.0002
     21 C         138.6707  141.5654  163.8618 C.ar    1  UNL1        0.0030
     22 C         138.6738  143.0572  163.7048 C.ar    1  UNL1        0.0369
     23 C         139.6422  145.8807  161.8883 C.3     1  UNL1        0.2525
     24 O         138.3660  145.1636  162.2154 O.3     1  UNL1       -0.4714
@<TRIPOS>BOND
     1    23    24    1
     2    24    17    1
     3    17    18   ar
     4    18    19   ar
     5    19    20   ar
     6    20    21   ar
     7    21     1    1
     8     1     2   ar
     9     2     3   ar
    10     3     4   ar
    11     4     5   ar
    12     5     7    1
    13     7     8    1
    14     7     9    1
    15     9    10    1
    16    10    11    1
    17    11    12    1
    18    12    13    1
    19    12    14    2
    20     5     6   ar
    21    21    22   ar
    22    22    17   ar
    23     6     1   ar
    24    14     7    1
    25    13    15    1
    26    13    16    1
@<TRIPOS>MOLECULE
*****
 24 26 0 0 0
SMALL
GASTEIGER

@<TRIPOS>ATOM
      1 C         139.9285  139.9747  167.3356 C.ar    1  UNL1       -0.0002
      2 C         138.5580  139.4080  167.5605 C.ar    1  UNL1       -0.0000
      3 C         137.9631  138.4638  166.5581 C.ar    1  UNL1       -0.0003
      4 C         138.7386  138.0864  165.3309 C.ar    1  UNL1       -0.0025
      5 C         140.1092  138.6533  165.1061 C.ar    1  UNL1       -0.0022
      6 C         140.7040  139.5974  166.1084 C.ar    1  UNL1       -0.0025
      7 C         140.8847  138.2759  163.8788 C.3     1  UNL1        0.1060
      8 C         141.8193  137.7776  164.9411 C.3     1  UNL1        0.0290
      9 C         139.6808  138.9052  163.2429 C.3     1  UNL1        0.0388
     10 C         139.5770  138.9841  161.7485 C.3     1  UNL1        0.0671
     11 S         140.6771  138.4338  160.8902 S.3     1  UNL1       -0.0807
     12 C         141.8811  137.8044  161.5262 C.2     1  UNL1        0.1482
     13 N         142.9812  137.2540  160.6679 N.pl3   1  UNL1       -0.3380
     14 N         141.9848  137.7255  163.0205 N.2     1  UNL1       -0.2509
     15 H         142.9132  137.3058  159.6871 H       1  UNL1        0.1442
     16 H         143.7714  136.8410  161.0854 H       1  UNL1        0.1442
     17 C         142.5297  142.3427  169.1731 C.ar    1  UNL1        0.1387
     18 C         141.7133  142.8071  170.3426 C.ar    1  UNL1        0.0369
     19 C         140.3020  142.3274  170.5098 C.ar    1  UNL1        0.0031
     20 C         139.7070  141.3833  169.5075 C.ar    1  UNL1        0.0002
     21 C         140.5234  140.9189  168.3380 C.ar    1  UNL1        0.0030
     22 C         141.9348  141.3986  168.1708 C.ar    1  UNL1        0.0369
     23 C         144.8474  142.9163  170.1974 C.3     1  UNL1        0.2525
     24 O         143.9411  142.8224  169.0059 O.3     1  UNL1       -0.4714
@<TRIPOS>BOND
     1    23    24    1
     2    24    17    1
     3    17    18   ar
     4    18    19   ar
     5    19    20   ar
     6    20    21   ar
     7    21     1    1
     8     1     2   ar
     9     2     3   ar
    10     3     4   ar
    11     4     5   ar
    12     5     7    1
    13     7     8    1
    14     7     9    1
    15     9    10    1
    16    10    11    1
    17    11    12    1
    18    12    13    1
    19    12    14    2
    20     5     6   ar
    21    21    22   ar
    22    22    17   ar
    23     6     1   ar
    24    14     7    1
    25    13    15    1
    26    13    16    1
@<TRIPOS>MOLECULE
*****
 24 26 0 0 0
SMALL
GASTEIGER

@<TRIPOS>ATOM
      1 C         139.6737  141.0601  166.8986 C.ar    1  UNL1       -0.0002
      2 C         139.0340  139.7862  166.4317 C.ar    1  UNL1       -0.0000
      3 C         138.4305  139.7087  165.0606 C.ar    1  UNL1       -0.0003
      4 C         138.4668  140.9051  164.1565 C.ar    1  UNL1       -0.0025
      5 C         139.1065  142.1790  164.6235 C.ar    1  UNL1       -0.0022
      6 C         139.7099  142.2564  165.9945 C.ar    1  UNL1       -0.0025
      7 C         139.1428  143.3753  163.7194 C.3     1  UNL1        0.1060
      8 C         137.7743  143.5378  164.3117 C.3     1  UNL1        0.0290
      9 C         140.4987  142.7973  163.4411 C.3     1  UNL1        0.0388
     10 C         141.4156  143.4721  162.4644 C.3     1  UNL1        0.0671
     11 S         140.9766  144.7249  161.7660 S.3     1  UNL1       -0.0807
     12 C         139.6207  145.3029  162.0443 C.2     1  UNL1        0.1482
     13 N         139.1816  146.5557  161.3459 N.pl3   1  UNL1       -0.3380
     14 N         138.7038  144.6281  163.0210 N.2     1  UNL1       -0.2509
     15 H         139.7834  146.9986  160.7049 H       1  UNL1        0.1442
     16 H         138.2917  146.9350  161.5286 H       1  UNL1        0.1442
     17 C         141.9909  142.1849  169.9178 C.ar    1  UNL1        0.1387
     18 C         141.4840  141.2927  171.0118 C.ar    1  UNL1        0.0369
     19 C         140.3737  140.3230  170.7349 C.ar    1  UNL1        0.0031
     20 C         139.7702  140.2454  169.3638 C.ar    1  UNL1        0.0002
     21 C         140.2771  141.1376  168.2698 C.ar    1  UNL1        0.0030
     22 C         141.3875  142.1073  168.5467 C.ar    1  UNL1        0.0369
     23 C         144.5282  142.7386  169.9928 C.3     1  UNL1        0.2525
     24 O         143.1013  143.1546  170.1947 O.3     1  UNL1       -0.4714
@<TRIPOS>BOND
     1    23    24    1
     2    24    17    1
     3    17    18   ar
     4    18    19   ar
     5    19    20   ar
     6    20    21   ar
     7    21     1    1
     8     1     2   ar
     9     2     3   ar
    10     3     4   ar
    11     4     5   ar
    12     5     7    1
    13     7     8    1
    14     7     9    1
    15     9    10    1
    16    10    11    1
    17    11    12    1
    18    12    13    1
    19    12    14    2
    20     5     6   ar
    21    21    22   ar
    22    22    17   ar
    23     6     1   ar
    24    14     7    1
    25    13    15    1
    26    13    16    1
@<TRIPOS>MOLECULE
*****
 24 26 0 0 0
SMALL
GASTEIGER

@<TRIPOS>ATOM
      1 C         141.6996  142.3298  166.7392 C.ar    1  UNL1       -0.0002
      2 C         143.1848  142.3585  166.9474 C.ar    1  UNL1       -0.0000
      3 C         144.0762  142.9702  165.9075 C.ar    1  UNL1       -0.0003
      4 C         143.4824  143.5533  164.6596 C.ar    1  UNL1       -0.0025
      5 C         141.9972  143.5246  164.4514 C.ar    1  UNL1       -0.0022
      6 C         141.1058  142.9129  165.4912 C.ar    1  UNL1       -0.0025
      7 C         141.4034  144.1076  163.2034 C.3     1  UNL1        0.1060
      8 C         142.0100  145.3409  163.8040 C.3     1  UNL1        0.0290
      9 C         141.0029  142.6717  163.0362 C.3     1  UNL1        0.0388
     10 C         140.2194  142.2472  161.8296 C.3     1  UNL1        0.0671
     11 S         139.8363  143.2586  160.7902 S.3     1  UNL1       -0.0807
     12 C         140.2367  144.6944  160.9574 C.2     1  UNL1        0.1482
     13 N         139.8536  145.7059  159.9181 N.pl3   1  UNL1       -0.3380
     14 N         141.0203  145.1189  162.1640 N.2     1  UNL1       -0.2509
     15 H         139.3394  145.4273  159.1261 H       1  UNL1        0.1442
     16 H         140.1165  146.6482  160.0278 H       1  UNL1        0.1442
     17 C         138.9886  139.9881  168.4471 C.ar    1  UNL1        0.1387
     18 C         139.0253  140.4946  169.8585 C.ar    1  UNL1        0.0369
     19 C         139.9534  141.6129  170.2301 C.ar    1  UNL1        0.0031
     20 C         140.8448  142.2246  169.1904 C.ar    1  UNL1        0.0002
     21 C         140.8081  141.7181  167.7790 C.ar    1  UNL1        0.0030
     22 C         139.8800  140.5998  167.4074 C.ar    1  UNL1        0.0369
     23 C         137.8829  138.4898  166.6353 C.3     1  UNL1        0.2525
     24 O         138.0605  138.8699  168.0754 O.3     1  UNL1       -0.4714
@<TRIPOS>BOND
     1    23    24    1
     2    24    17    1
     3    17    18   ar
     4    18    19   ar
     5    19    20   ar
     6    20    21   ar
     7    21     1    1
     8     1     2   ar
     9     2     3   ar
    10     3     4   ar
    11     4     5   ar
    12     5     7    1
    13     7     8    1
    14     7     9    1
    15     9    10    1
    16    10    11    1
    17    11    12    1
    18    12    13    1
    19    12    14    2
    20     5     6   ar
    21    21    22   ar
    22    22    17   ar
    23     6     1   ar
    24    14     7    1
    25    13    15    1
    26    13    16    1
@<TRIPOS>MOLECULE
*****
 24 26 0 0 0
SMALL
GASTEIGER

@<TRIPOS>ATOM
      1 C         139.3396  139.1835  165.6122 C.ar    1  UNL1       -0.0002
      2 C         138.1152  138.8157  166.3968 C.ar    1  UNL1       -0.0000
      3 C         138.0327  139.1474  167.8574 C.ar    1  UNL1       -0.0003
      4 C         139.1746  139.8468  168.5333 C.ar    1  UNL1       -0.0025
      5 C         140.3990  140.2146  167.7487 C.ar    1  UNL1       -0.0022
      6 C         140.4815  139.8830  166.2881 C.ar    1  UNL1       -0.0025
      7 C         141.5409  140.9140  168.4246 C.3     1  UNL1        0.1060
      8 C         142.2792  139.7865  167.7661 C.3     1  UNL1        0.0290
      9 C         140.4060  141.7986  168.8483 C.3     1  UNL1        0.0388
     10 C         140.6695  142.9911  169.7193 C.3     1  UNL1        0.0671
     11 S         142.0677  143.2990  170.1666 S.3     1  UNL1       -0.0807
     12 C         143.2026  142.4144  169.7428 C.2     1  UNL1        0.1482
     13 N         144.6009  142.7222  170.1900 N.pl3   1  UNL1       -0.3380
     14 N         142.9391  141.2219  168.8718 N.2     1  UNL1       -0.2509
     15 H         144.7739  143.5048  170.7616 H       1  UNL1        0.1442
     16 H         145.3457  142.1416  169.9118 H       1  UNL1        0.1442
     17 C         138.4513  139.0209  161.7477 C.ar    1  UNL1        0.1387
     18 C         139.5870  138.1887  161.2306 C.ar    1  UNL1        0.0369
     19 C         140.6403  137.6880  162.1740 C.ar    1  UNL1        0.0031
     20 C         140.5578  138.0196  163.6345 C.ar    1  UNL1        0.0002
     21 C         139.4221  138.8519  164.1516 C.ar    1  UNL1        0.0030
     22 C         138.3688  139.3525  163.2082 C.ar    1  UNL1        0.0369
     23 C         137.7961  140.1771  159.5152 C.3     1  UNL1        0.2525
     24 O         137.3980  139.5215  160.8043 O.3     1  UNL1       -0.4714
@<TRIPOS>BOND
     1    23    24    1
     2    24    17    1
     3    17    18   ar
     4    18    19   ar
     5    19    20   ar
     6    20    21   ar
     7    21     1    1
     8     1     2   ar
     9     2     3   ar
    10     3     4   ar
    11     4     5   ar
    12     5     7    1
    13     7     8    1
    14     7     9    1
    15     9    10    1
    16    10    11    1
    17    11    12    1
    18    12    13    1
    19    12    14    2
    20     5     6   ar
    21    21    22   ar
    22    22    17   ar
    23     6     1   ar
    24    14     7    1
    25    13    15    1
    26    13    16    1
@<TRIPOS>MOLECULE
*****
 24 26 0 0 0
SMALL
GASTEIGER

@<TRIPOS>ATOM
      1 C         140.9526  139.1853  164.5361 C.ar    1  UNL1       -0.0002
      2 C         139.8026  138.2259  164.6198 C.ar    1  UNL1       -0.0000
      3 C         138.7890  138.3640  165.7170 C.ar    1  UNL1       -0.0003
      4 C         138.9255  139.4614  166.7304 C.ar    1  UNL1       -0.0025
      5 C         140.0756  140.4208  166.6466 C.ar    1  UNL1       -0.0022
      6 C         141.0891  140.2827  165.5495 C.ar    1  UNL1       -0.0025
      7 C         140.2121  141.5182  167.6600 C.3     1  UNL1        0.1060
      8 C         140.2497  142.3248  166.3959 C.3     1  UNL1        0.0290
      9 C         140.1271  140.3305  168.5721 C.3     1  UNL1        0.0388
     10 C         140.1917  140.5203  170.0587 C.3     1  UNL1        0.0671
     11 S         140.3413  141.8978  170.6331 S.3     1  UNL1       -0.0807
     12 C         140.4262  143.0856  169.7210 C.2     1  UNL1        0.1482
     13 N         140.5758  144.4632  170.2953 N.pl3   1  UNL1       -0.3380
     14 N         140.3617  142.8958  168.2344 N.2     1  UNL1       -0.2509
     15 H         140.6182  144.5878  171.2710 H       1  UNL1        0.1442
     16 H         140.6316  145.2427  169.6966 H       1  UNL1        0.1442
     17 C         144.0754  139.9240  162.2010 C.ar    1  UNL1        0.1387
     18 C         143.9932  138.7713  161.2447 C.ar    1  UNL1        0.0369
     19 C         142.8975  137.7566  161.3855 C.ar    1  UNL1        0.0031
     20 C         141.8840  137.8946  162.4826 C.ar    1  UNL1        0.0002
     21 C         141.9661  139.0472  163.4389 C.ar    1  UNL1        0.0030
     22 C         143.0618  140.0619  163.2981 C.ar    1  UNL1        0.0369
     23 C         145.5978  141.7512  163.2466 C.3     1  UNL1        0.2525
     24 O         145.1711  140.9386  162.0602 O.3     1  UNL1       -0.4714
@<TRIPOS>BOND
     1    23    24    1
     2    24    17    1
     3    17    18   ar
     4    18    19   ar
     5    19    20   ar
     6    20    21   ar
     7    21     1    1
     8     1     2   ar
     9     2     3   ar
    10     3     4   ar
    11     4     5   ar
    12     5     7    1
    13     7     8    1
    14     7     9    1
    15     9    10    1
    16    10    11    1
    17    11    12    1
    18    12    13    1
    19    12    14    2
    20     5     6   ar
    21    21    22   ar
    22    22    17   ar
    23     6     1   ar
    24    14     7    1
    25    13    15    1
    26    13    16    1
@<TRIPOS>MOLECULE
*****
 24 26 0 0 0
SMALL
GASTEIGER

@<TRIPOS>ATOM
      1 C         140.8885  139.8602  164.7875 C.ar    1  UNL1       -0.0002
      2 C         141.7093  138.6149  164.6276 C.ar    1  UNL1       -0.0000
      3 C         142.7899  138.2965  165.6181 C.ar    1  UNL1       -0.0003
      4 C         143.0497  139.2235  166.7685 C.ar    1  UNL1       -0.0025
      5 C         142.2288  140.4688  166.9283 C.ar    1  UNL1       -0.0022
      6 C         141.1483  140.7871  165.9378 C.ar    1  UNL1       -0.0025
      7 C         142.4886  141.3957  168.0787 C.3     1  UNL1        0.1060
      8 C         143.1642  142.1544  166.9751 C.3     1  UNL1        0.0290
      9 C         141.7227  140.3151  168.7827 C.3     1  UNL1        0.0388
     10 C         141.4512  140.4249  170.2539 C.3     1  UNL1        0.0671
     11 S         141.9456  141.6153  171.0209 S.3     1  UNL1       -0.0807
     12 C         142.7115  142.6960  170.3169 C.2     1  UNL1        0.1482
     13 N         143.2059  143.8864  171.0839 N.pl3   1  UNL1       -0.3380
     14 N         142.9829  142.5861  168.8457 N.2     1  UNL1       -0.2509
     15 H         143.0278  143.9586  172.0495 H       1  UNL1        0.1442
     16 H         143.7086  144.5957  170.6218 H       1  UNL1        0.1442
     17 C         138.4587  141.9216  162.4218 C.ar    1  UNL1        0.1387
     18 C         137.6468  140.8153  161.8161 C.ar    1  UNL1        0.0369
     19 C         137.9156  139.3906  162.2008 C.ar    1  UNL1        0.0031
     20 C         138.9961  139.0722  163.1913 C.ar    1  UNL1        0.0002
     21 C         139.8079  140.1785  163.7970 C.ar    1  UNL1        0.0030
     22 C         139.5392  141.6032  163.4123 C.ar    1  UNL1        0.0369
     23 C         137.7576  144.3356  163.0784 C.3     1  UNL1        0.2525
     24 O         138.1900  143.3463  162.0371 O.3     1  UNL1       -0.4714
@<TRIPOS>BOND
     1    23    24    1
     2    24    17    1
     3    17    18   ar
     4    18    19   ar
     5    19    20   ar
     6    20    21   ar
     7    21     1    1
     8     1     2   ar
     9     2     3   ar
    10     3     4   ar
    11     4     5   ar
    12     5     7    1
    13     7     8    1
    14     7     9    1
    15     9    10    1
    16    10    11    1
    17    11    12    1
    18    12    13    1
    19    12    14    2
    20     5     6   ar
    21    21    22   ar
    22    22    17   ar
    23     6     1   ar
    24    14     7    1
    25    13    15    1
    26    13    16    1
@<TRIPOS>MOLECULE
*****
 24 26 0 0 0
SMALL
GASTEIGER

@<TRIPOS>ATOM
      1 C         142.1231  142.3711  165.8525 C.ar    1  UNL1       -0.0002
      2 C         143.4984  142.6665  166.3733 C.ar    1  UNL1       -0.0000
      3 C         144.4595  143.4645  165.5429 C.ar    1  UNL1       -0.0003
      4 C         144.0453  143.9671  164.1917 C.ar    1  UNL1       -0.0025
      5 C         142.6699  143.6717  163.6709 C.ar    1  UNL1       -0.0022
      6 C         141.7089  142.8737  164.5013 C.ar    1  UNL1       -0.0025
      7 C         142.2556  144.1743  162.3197 C.3     1  UNL1        0.1060
      8 C         143.5249  143.4628  161.9551 C.3     1  UNL1        0.0290
      9 C         141.1303  144.7112  163.1535 C.3     1  UNL1        0.0388
     10 C         140.0315  145.5036  162.5095 C.3     1  UNL1        0.0671
     11 S         140.0580  145.7591  161.0318 S.3     1  UNL1       -0.0807
     12 C         141.1833  145.2222  160.1979 C.2     1  UNL1        0.1482
     13 N         141.2100  145.4777  158.7200 N.pl3   1  UNL1       -0.3380
     14 N         142.2822  144.4298  160.8419 N.2     1  UNL1       -0.2509
     15 H         140.4888  145.9978  158.2973 H       1  UNL1        0.1442
     16 H         141.9486  145.1253  158.1728 H       1  UNL1        0.1442
     17 C         139.8419  141.2355  168.8950 C.ar    1  UNL1        0.1387
     18 C         139.2399  139.9772  168.3437 C.ar    1  UNL1        0.0369
     19 C         139.5989  139.5167  166.9620 C.ar    1  UNL1        0.0031
     20 C         140.5600  140.3147  166.1316 C.ar    1  UNL1        0.0002
     21 C         141.1620  141.5731  166.6829 C.ar    1  UNL1        0.0030
     22 C         140.8030  142.0335  168.0646 C.ar    1  UNL1        0.0369
     23 C         139.8749  143.0693  170.7351 C.3     1  UNL1        0.2525
     24 O         139.4829  141.6960  170.2767 O.3     1  UNL1       -0.4714
@<TRIPOS>BOND
     1    23    24    1
     2    24    17    1
     3    17    18   ar
     4    18    19   ar
     5    19    20   ar
     6    20    21   ar
     7    21     1    1
     8     1     2   ar
     9     2     3   ar
    10     3     4   ar
    11     4     5   ar
    12     5     7    1
    13     7     8    1
    14     7     9    1
    15     9    10    1
    16    10    11    1
    17    11    12    1
    18    12    13    1
    19    12    14    2
    20     5     6   ar
    21    21    22   ar
    22    22    17   ar
    23     6     1   ar
    24    14     7    1
    25    13    15    1
    26    13    16    1
