@<TRIPOS>MOLECULE
*****
 39 44 0 0 0
SMALL
GASTEIGER

@<TRIPOS>ATOM
      1 C         142.6008  136.5454  156.1979 C.ar    1  UNL1       -0.0065
      2 C         143.5498  137.2151  155.2488 C.ar    1  UNL1       -0.0032
      3 C         144.1207  138.5610  155.5840 C.ar    1  UNL1       -0.0026
      4 C         143.7426  139.2373  156.8684 C.ar    1  UNL1        0.0019
      5 C         142.7936  138.5677  157.8175 C.ar    1  UNL1       -0.0200
      6 C         142.2227  137.2217  157.4823 C.ar    1  UNL1       -0.0071
      7 C         142.6062  139.4712  159.0001 C.3     1  UNL1        0.0519
      8 C         143.4394  140.6993  158.7819 C.2     1  UNL1        0.0074
      9 C         143.8385  142.0166  159.3779 C.2     1  UNL1        0.0976
     10 N         144.7875  142.6863  158.4287 N.2     1  UNL1       -0.1526
     11 N         144.9749  141.7828  157.2461 N.2     1  UNL1       -0.1678
     12 C         144.1417  140.5548  157.4644 C.3     1  UNL1        0.1672
     13 C         143.3708  142.5676  160.6923 C.ar    1  UNL1        0.0265
     14 C         142.4476  143.7348  160.8807 C.ar    1  UNL1        0.0376
     15 S         142.2504  143.9366  162.3539 S.2     1  UNL1       -0.0780
     16 C         143.0516  142.8942  163.0760 C.ar    1  UNL1        0.0710
     17 C         143.7441  142.0481  162.0491 C.ar    1  UNL1        0.0168
     18 C         143.1442  142.7272  164.5638 C.1     1  UNL1       -0.0564
     19 C         143.2367  142.5602  166.0516 C.1     1  UNL1       -0.0666
     20 C         143.3293  142.3932  167.5394 C.3     1  UNL1        0.1670
     21 N         142.4972  141.3541  168.2307 N.3     1  UNL1       -0.1661
     22 H         141.9346  141.8428  168.9271 H       1  UNL1        0.1500
     23 S         141.5558  140.4974  167.4371 S.O2    1  UNL1        0.0611
     24 O         142.6337  139.4678  167.2697 O.2     1  UNL1       -0.1530
     25 O         140.4779  141.5270  167.6045 O.2     1  UNL1       -0.1530
     26 C         140.6143  139.6408  166.6435 C.ar    1  UNL1        0.1220
     27 C         139.1545  139.6135  166.9873 C.ar    1  UNL1        0.0199
     28 C         138.2130  138.7568  166.1937 C.ar    1  UNL1        0.0014
     29 C         138.7313  137.9274  165.0563 C.ar    1  UNL1        0.0001
     30 C         140.1912  137.9547  164.7126 C.ar    1  UNL1        0.0014
     31 C         141.1326  138.8114  165.5062 C.ar    1  UNL1        0.0199
     32 C         142.0299  135.1994  155.8627 C.3     1  UNL1        0.0992
     33 C         144.6903  130.2211  157.8970 C.3     1  UNL1        0.0897
     34 N         144.0252  131.4656  157.3885 N.3     1  UNL1       -0.2691
     35 C         144.5795  132.8124  157.7474 C.3     1  UNL1        0.0897
     36 C         143.9144  134.0570  157.2388 C.3     1  UNL1        0.0899
     37 N         142.6950  133.9548  156.3713 N.3     1  UNL1       -0.2665
     38 C         142.1407  132.6079  156.0124 C.3     1  UNL1        0.0899
     39 C         142.8057  131.3634  156.5210 C.3     1  UNL1        0.0897
@<TRIPOS>BOND
     1    33    34    1
     2    34    35    1
     3    35    36    1
     4    36    37    1
     5    37    32    1
     6    32     1    1
     7     1     2   ar
     8     2     3   ar
     9     3     4   ar
    10     4     5   ar
    11     5     6   ar
    12     5     7    1
    13     7     8    1
    14     8     9    2
    15     9    13    1
    16    13    14   ar
    17    14    15   ar
    18    15    16   ar
    19    16    18    1
    20    18    19    3
    21    19    20    1
    22    20    21    1
    23    21    23    1
    24    23    24    2
    25    23    25    2
    26    23    26    1
    27    26    27   ar
    28    27    28   ar
    29    28    29   ar
    30    29    30   ar
    31    30    31   ar
    32    16    17   ar
    33     9    10    1
    34    10    11    2
    35    11    12    1
    36    37    38    1
    37    38    39    1
    38    39    34    1
    39     6     1   ar
    40    12     8    1
    41    12     4    1
    42    17    13   ar
    43    31    26   ar
    44    21    22    1
@<TRIPOS>MOLECULE
*****
 39 44 0 0 0
SMALL
GASTEIGER

@<TRIPOS>ATOM
      1 C         143.4090  131.6719  155.8378 C.ar    1  UNL1       -0.0065
      2 C         142.0293  131.7374  155.2530 C.ar    1  UNL1       -0.0032
      3 C         141.3085  133.0507  155.1771 C.ar    1  UNL1       -0.0026
      4 C         141.9674  134.2984  155.6861 C.ar    1  UNL1        0.0019
      5 C         143.3471  134.2329  156.2709 C.ar    1  UNL1       -0.0200
      6 C         144.0679  132.9197  156.3467 C.ar    1  UNL1       -0.0071
      7 C         143.7395  135.6189  156.6893 C.3     1  UNL1        0.0519
      8 C         142.6022  136.5410  156.3631 C.2     1  UNL1        0.0074
      9 C         142.1418  137.9674  156.4202 C.2     1  UNL1        0.0976
     10 N         140.7621  138.0329  155.8354 N.2     1  UNL1       -0.1526
     11 N         140.3698  136.6470  155.4169 N.2     1  UNL1       -0.1678
     12 C         141.5070  135.7249  155.7431 C.3     1  UNL1        0.1672
     13 C         142.9239  139.1251  156.9662 C.ar    1  UNL1        0.0265
     14 C         144.0256  139.8571  156.2585 C.ar    1  UNL1        0.0376
     15 S         144.5242  140.9384  157.1707 S.2     1  UNL1       -0.0780
     16 C         143.7307  140.8749  158.4421 C.ar    1  UNL1        0.0710
     17 C         142.7417  139.7542  158.3157 C.ar    1  UNL1        0.0168
     18 C         143.8969  141.7741  159.6311 C.1     1  UNL1       -0.0564
     19 C         144.0632  142.6733  160.8201 C.1     1  UNL1       -0.0666
     20 C         144.2295  143.5725  162.0091 C.3     1  UNL1        0.1670
     21 N         143.3331  144.7630  162.1803 N.3     1  UNL1       -0.1661
     22 H         143.2975  145.2371  161.2779 H       1  UNL1        0.1500
     23 S         141.9135  144.5747  162.6269 S.O2    1  UNL1        0.0611
     24 O         142.3944  144.1966  163.9965 O.2     1  UNL1       -0.1530
     25 O         141.4326  144.9529  161.2573 O.2     1  UNL1       -0.1530
     26 C         140.4939  144.3865  163.0733 C.ar    1  UNL1        0.1220
     27 C         140.0756  144.8215  164.4465 C.ar    1  UNL1        0.0199
     28 C         138.6560  144.6333  164.8930 C.ar    1  UNL1        0.0014
     29 C         137.6547  144.0101  163.9662 C.ar    1  UNL1        0.0001
     30 C         138.0730  143.5751  162.5929 C.ar    1  UNL1        0.0014
     31 C         139.4926  143.7633  162.1465 C.ar    1  UNL1        0.0199
     32 C         144.1299  130.3586  155.9137 C.3     1  UNL1        0.0992
     33 C         142.8707  126.4960  160.3289 C.3     1  UNL1        0.0897
     34 N         143.1855  127.4616  159.2251 N.3     1  UNL1       -0.2691
     35 C         144.0660  128.6461  159.4933 C.3     1  UNL1        0.0897
     36 C         144.3808  129.6118  158.3895 C.3     1  UNL1        0.0899
     37 N         143.8151  129.3930  157.0175 N.3     1  UNL1       -0.2665
     38 C         142.9347  128.2085  156.7494 C.3     1  UNL1        0.0899
     39 C         142.6199  127.2429  157.8532 C.3     1  UNL1        0.0897
@<TRIPOS>BOND
     1    33    34    1
     2    34    35    1
     3    35    36    1
     4    36    37    1
     5    37    32    1
     6    32     1    1
     7     1     2   ar
     8     2     3   ar
     9     3     4   ar
    10     4     5   ar
    11     5     6   ar
    12     5     7    1
    13     7     8    1
    14     8     9    2
    15     9    13    1
    16    13    14   ar
    17    14    15   ar
    18    15    16   ar
    19    16    18    1
    20    18    19    3
    21    19    20    1
    22    20    21    1
    23    21    23    1
    24    23    24    2
    25    23    25    2
    26    23    26    1
    27    26    27   ar
    28    27    28   ar
    29    28    29   ar
    30    29    30   ar
    31    30    31   ar
    32    16    17   ar
    33     9    10    1
    34    10    11    2
    35    11    12    1
    36    37    38    1
    37    38    39    1
    38    39    34    1
    39     6     1   ar
    40    12     8    1
    41    12     4    1
    42    17    13   ar
    43    31    26   ar
    44    21    22    1
@<TRIPOS>MOLECULE
*****
 39 44 0 0 0
SMALL
GASTEIGER

@<TRIPOS>ATOM
      1 C         142.5345  136.0840  155.9457 C.ar    1  UNL1       -0.0065
      2 C         143.8200  136.4295  155.2543 C.ar    1  UNL1       -0.0032
      3 C         144.3765  137.8187  155.3563 C.ar    1  UNL1       -0.0026
      4 C         143.6475  138.8623  156.1495 C.ar    1  UNL1        0.0019
      5 C         142.3619  138.5168  156.8409 C.ar    1  UNL1       -0.0200
      6 C         141.8055  137.1276  156.7389 C.ar    1  UNL1       -0.0071
      7 C         141.8700  139.7459  157.5460 C.3     1  UNL1        0.0519
      8 C         142.8515  140.8511  157.2905 C.2     1  UNL1        0.0074
      9 C         143.1540  142.2937  157.5684 C.2     1  UNL1        0.0976
     10 N         144.4395  142.6393  156.8771 N.2     1  UNL1       -0.1526
     11 N         144.9315  141.4102  156.1719 N.2     1  UNL1       -0.1678
     12 C         143.9500  140.3051  156.4274 C.3     1  UNL1        0.1672
     13 C         142.3177  143.2270  158.3929 C.ar    1  UNL1        0.0265
     14 C         141.9758  144.6455  158.0447 C.ar    1  UNL1        0.0376
     15 S         141.1234  145.2007  159.1469 S.2     1  UNL1       -0.0780
     16 C         140.9385  144.1255  160.1764 C.ar    1  UNL1        0.0710
     17 C         141.6766  142.9057  159.7104 C.ar    1  UNL1        0.0168
     18 C         140.1533  144.2485  161.4485 C.1     1  UNL1       -0.0564
     19 C         139.3681  144.3716  162.7207 C.1     1  UNL1       -0.0666
     20 C         138.5829  144.4946  163.9928 C.3     1  UNL1        0.1670
     21 N         137.5893  143.4347  164.3664 N.3     1  UNL1       -0.1661
     22 H         136.7498  143.6104  163.8144 H       1  UNL1        0.1500
     23 S         137.9331  141.9862  164.1825 S.O2    1  UNL1        0.0611
     24 O         136.9577  141.8989  163.0463 O.2     1  UNL1       -0.1530
     25 O         138.9085  142.0735  165.3187 O.2     1  UNL1       -0.1530
     26 C         138.2769  140.5378  163.9988 C.ar    1  UNL1        0.1220
     27 C         138.4288  139.9723  162.6177 C.ar    1  UNL1        0.0199
     28 C         138.7726  138.5239  162.4339 C.ar    1  UNL1        0.0014
     29 C         138.9645  137.6408  163.6312 C.ar    1  UNL1        0.0001
     30 C         138.8127  138.2063  165.0122 C.ar    1  UNL1        0.0014
     31 C         138.4689  139.6548  165.1960 C.ar    1  UNL1        0.0199
     32 C         141.9780  134.6947  155.8438 C.3     1  UNL1        0.0992
     33 C         144.9677  130.0813  158.2474 C.3     1  UNL1        0.0897
     34 N         144.2203  131.2347  157.6465 N.3     1  UNL1       -0.2691
     35 C         144.6386  132.6417  157.9548 C.3     1  UNL1        0.0897
     36 C         143.8911  133.7952  157.3539 C.3     1  UNL1        0.0899
     37 N         142.7254  133.5414  156.4447 N.3     1  UNL1       -0.2665
     38 C         142.3071  132.1342  156.1364 C.3     1  UNL1        0.0899
     39 C         143.0546  130.9809  156.7373 C.3     1  UNL1        0.0897
@<TRIPOS>BOND
     1    33    34    1
     2    34    35    1
     3    35    36    1
     4    36    37    1
     5    37    32    1
     6    32     1    1
     7     1     2   ar
     8     2     3   ar
     9     3     4   ar
    10     4     5   ar
    11     5     6   ar
    12     5     7    1
    13     7     8    1
    14     8     9    2
    15     9    13    1
    16    13    14   ar
    17    14    15   ar
    18    15    16   ar
    19    16    18    1
    20    18    19    3
    21    19    20    1
    22    20    21    1
    23    21    23    1
    24    23    24    2
    25    23    25    2
    26    23    26    1
    27    26    27   ar
    28    27    28   ar
    29    28    29   ar
    30    29    30   ar
    31    30    31   ar
    32    16    17   ar
    33     9    10    1
    34    10    11    2
    35    11    12    1
    36    37    38    1
    37    38    39    1
    38    39    34    1
    39     6     1   ar
    40    12     8    1
    41    12     4    1
    42    17    13   ar
    43    31    26   ar
    44    21    22    1
@<TRIPOS>MOLECULE
*****
 39 44 0 0 0
SMALL
GASTEIGER

@<TRIPOS>ATOM
      1 C         143.1183  131.1553  155.7199 C.ar    1  UNL1       -0.0065
      2 C         142.0480  131.4651  154.7157 C.ar    1  UNL1       -0.0032
      3 C         141.4768  132.8495  154.6314 C.ar    1  UNL1       -0.0026
      4 C         141.9759  133.9240  155.5513 C.ar    1  UNL1        0.0019
      5 C         143.0461  133.6142  156.5555 C.ar    1  UNL1       -0.0200
      6 C         143.6173  132.2299  156.6398 C.ar    1  UNL1       -0.0071
      7 C         143.3372  134.8687  157.3246 C.3     1  UNL1        0.0519
      8 C         142.4468  135.9539  156.7957 C.2     1  UNL1        0.0074
      9 C         142.0765  137.3998  156.9442 C.2     1  UNL1        0.0976
     10 N         141.0062  137.7096  155.9399 N.2     1  UNL1       -0.1526
     11 N         140.7152  136.4551  155.1708 N.2     1  UNL1       -0.1678
     12 C         141.6055  135.3701  155.6997 C.3     1  UNL1        0.1672
     13 C         142.6719  138.3663  157.9248 C.ar    1  UNL1        0.0265
     14 C         143.1456  139.7558  157.6164 C.ar    1  UNL1        0.0376
     15 S         143.6645  140.3611  158.8869 S.2     1  UNL1       -0.0780
     16 C         143.5116  139.3458  159.9805 C.ar    1  UNL1        0.0710
     17 C         142.8981  138.1130  159.3858 C.ar    1  UNL1        0.0168
     18 C         143.9033  139.5309  161.4165 C.1     1  UNL1       -0.0564
     19 C         144.2951  139.7160  162.8526 C.1     1  UNL1       -0.0666
     20 C         144.6868  139.9011  164.2886 C.3     1  UNL1        0.1670
     21 N         143.7344  140.5509  165.2481 N.3     1  UNL1       -0.1661
     22 H         143.6093  141.5128  164.9328 H       1  UNL1        0.1500
     23 S         142.3622  139.9782  165.4463 S.O2    1  UNL1        0.0611
     24 O         142.9678  138.7008  165.9481 O.2     1  UNL1       -0.1530
     25 O         141.7567  141.2555  164.9446 O.2     1  UNL1       -0.1530
     26 C         140.9901  139.4056  165.6445 C.ar    1  UNL1        0.1220
     27 C         140.0527  140.0301  166.6351 C.ar    1  UNL1        0.0199
     28 C         138.6805  139.4575  166.8333 C.ar    1  UNL1        0.0014
     29 C         138.2458  138.2603  166.0409 C.ar    1  UNL1        0.0001
     30 C         139.1832  137.6358  165.0503 C.ar    1  UNL1        0.0014
     31 C         140.5554  138.2085  164.8522 C.ar    1  UNL1        0.0199
     32 C         143.6895  129.7708  155.8043 C.3     1  UNL1        0.0992
     33 C         142.8076  126.4564  160.7274 C.3     1  UNL1        0.0897
     34 N         143.0281  127.2850  159.4966 N.3     1  UNL1       -0.2691
     35 C         142.1605  127.0814  158.2901 C.3     1  UNL1        0.0897
     36 C         142.3810  127.9100  157.0592 C.3     1  UNL1        0.0899
     37 N         143.4691  128.9422  157.0350 N.3     1  UNL1       -0.2665
     38 C         144.3367  129.1459  158.2417 C.3     1  UNL1        0.0899
     39 C         144.1162  128.3173  159.4724 C.3     1  UNL1        0.0897
@<TRIPOS>BOND
     1    33    34    1
     2    34    35    1
     3    35    36    1
     4    36    37    1
     5    37    32    1
     6    32     1    1
     7     1     2   ar
     8     2     3   ar
     9     3     4   ar
    10     4     5   ar
    11     5     6   ar
    12     5     7    1
    13     7     8    1
    14     8     9    2
    15     9    13    1
    16    13    14   ar
    17    14    15   ar
    18    15    16   ar
    19    16    18    1
    20    18    19    3
    21    19    20    1
    22    20    21    1
    23    21    23    1
    24    23    24    2
    25    23    25    2
    26    23    26    1
    27    26    27   ar
    28    27    28   ar
    29    28    29   ar
    30    29    30   ar
    31    30    31   ar
    32    16    17   ar
    33     9    10    1
    34    10    11    2
    35    11    12    1
    36    37    38    1
    37    38    39    1
    38    39    34    1
    39     6     1   ar
    40    12     8    1
    41    12     4    1
    42    17    13   ar
    43    31    26   ar
    44    21    22    1
@<TRIPOS>MOLECULE
*****
 39 44 0 0 0
SMALL
GASTEIGER

@<TRIPOS>ATOM
      1 C         143.1274  131.9500  154.9911 C.ar    1  UNL1       -0.0065
      2 C         142.5841  132.6657  153.7902 C.ar    1  UNL1       -0.0032
      3 C         142.2909  134.1350  153.8618 C.ar    1  UNL1       -0.0026
      4 C         142.5410  134.8885  155.1345 C.ar    1  UNL1        0.0019
      5 C         143.0844  134.1728  156.3355 C.ar    1  UNL1       -0.0200
      6 C         143.3776  132.7035  156.2638 C.ar    1  UNL1       -0.0071
      7 C         143.2286  135.1721  157.4447 C.3     1  UNL1        0.0519
      8 C         142.7744  136.5056  156.9293 C.2     1  UNL1        0.0074
      9 C         142.5829  137.9473  157.2963 C.2     1  UNL1        0.0976
     10 N         142.0395  138.6631  156.0953 N.2     1  UNL1       -0.1526
     11 N         141.8953  137.6637  154.9861 N.2     1  UNL1       -0.1678
     12 C         142.3494  136.3303  155.5015 C.3     1  UNL1        0.1672
     13 C         142.8821  138.5648  158.6302 C.ar    1  UNL1        0.0265
     14 C         142.9646  137.8379  159.9397 C.ar    1  UNL1        0.0376
     15 S         143.2849  138.8415  161.0075 S.2     1  UNL1       -0.0780
     16 C         143.4004  140.1886  160.3579 C.ar    1  UNL1        0.0710
     17 C         143.1515  140.0176  158.8887 C.ar    1  UNL1        0.0168
     18 C         143.7104  141.4800  161.0552 C.1     1  UNL1       -0.0564
     19 C         144.0204  142.7714  161.7525 C.1     1  UNL1       -0.0666
     20 C         144.3304  144.0628  162.4497 C.3     1  UNL1        0.1670
     21 N         143.2661  145.1094  162.5980 N.3     1  UNL1       -0.1661
     22 H         143.2682  145.6556  161.7366 H       1  UNL1        0.1500
     23 S         141.8443  144.7028  162.8494 S.O2    1  UNL1        0.0611
     24 O         142.1964  144.3454  164.2631 O.2     1  UNL1       -0.1530
     25 O         141.4922  145.0601  161.4359 O.2     1  UNL1       -0.1530
     26 C         140.4225  144.2962  163.1008 C.ar    1  UNL1        0.1220
     27 C         139.6952  143.4519  162.0968 C.ar    1  UNL1        0.0199
     28 C         138.2734  143.0453  162.3481 C.ar    1  UNL1        0.0014
     29 C         137.5789  143.4831  163.6036 C.ar    1  UNL1        0.0001
     30 C         138.3062  144.3274  164.6076 C.ar    1  UNL1        0.0014
     31 C         139.7280  144.7340  164.3562 C.ar    1  UNL1        0.0199
     32 C         143.4206  130.4806  154.9195 C.3     1  UNL1        0.0992
     33 C         139.1997  126.5009  156.4510 C.3     1  UNL1        0.0897
     34 N         140.2550  127.4958  156.0681 N.3     1  UNL1       -0.2691
     35 C         139.8881  128.7040  155.2584 C.3     1  UNL1        0.0897
     36 C         140.9433  129.6990  154.8755 C.3     1  UNL1        0.0899
     37 N         142.3654  129.4857  155.3024 N.3     1  UNL1       -0.2665
     38 C         142.7323  128.2774  156.1121 C.3     1  UNL1        0.0899
     39 C         141.6770  127.2825  156.4950 C.3     1  UNL1        0.0897
@<TRIPOS>BOND
     1    33    34    1
     2    34    35    1
     3    35    36    1
     4    36    37    1
     5    37    32    1
     6    32     1    1
     7     1     2   ar
     8     2     3   ar
     9     3     4   ar
    10     4     5   ar
    11     5     6   ar
    12     5     7    1
    13     7     8    1
    14     8     9    2
    15     9    13    1
    16    13    14   ar
    17    14    15   ar
    18    15    16   ar
    19    16    18    1
    20    18    19    3
    21    19    20    1
    22    20    21    1
    23    21    23    1
    24    23    24    2
    25    23    25    2
    26    23    26    1
    27    26    27   ar
    28    27    28   ar
    29    28    29   ar
    30    29    30   ar
    31    30    31   ar
    32    16    17   ar
    33     9    10    1
    34    10    11    2
    35    11    12    1
    36    37    38    1
    37    38    39    1
    38    39    34    1
    39     6     1   ar
    40    12     8    1
    41    12     4    1
    42    17    13   ar
    43    31    26   ar
    44    21    22    1
@<TRIPOS>MOLECULE
*****
 39 44 0 0 0
SMALL
GASTEIGER

@<TRIPOS>ATOM
      1 C         143.9301  131.4600  155.4936 C.ar    1  UNL1       -0.0065
      2 C         143.1295  131.5805  154.2309 C.ar    1  UNL1       -0.0032
      3 C         142.4227  132.8641  153.9106 C.ar    1  UNL1       -0.0026
      4 C         142.5165  134.0273  154.8530 C.ar    1  UNL1        0.0019
      5 C         143.3170  133.9068  156.1158 C.ar    1  UNL1       -0.0200
      6 C         144.0239  132.6232  156.4360 C.ar    1  UNL1       -0.0071
      7 C         143.2278  135.2132  156.8475 C.3     1  UNL1        0.0519
      8 C         142.3720  136.1410  156.0371 C.2     1  UNL1        0.0074
      9 C         141.7880  137.5218  155.9885 C.2     1  UNL1        0.0976
     10 N         140.9874  137.6422  154.7258 N.2     1  UNL1       -0.1526
     11 N         141.0767  136.3359  153.9940 N.2     1  UNL1       -0.1678
     12 C         141.9324  135.4081  154.8044 C.3     1  UNL1        0.1672
     13 C         141.9722  138.5939  157.0213 C.ar    1  UNL1        0.0265
     14 C         142.5935  138.4165  158.3751 C.ar    1  UNL1        0.0376
     15 S         142.5727  139.7445  159.0721 S.2     1  UNL1       -0.0780
     16 C         141.9387  140.7426  158.1492 C.ar    1  UNL1        0.0710
     17 C         141.5676  140.0315  156.8817 C.ar    1  UNL1        0.0168
     18 C         141.7151  142.1966  158.4422 C.1     1  UNL1       -0.0564
     19 C         141.4914  143.6507  158.7353 C.1     1  UNL1       -0.0666
     20 C         141.2677  145.1046  159.0283 C.3     1  UNL1        0.1670
     21 N         141.5146  145.6382  160.4083 N.3     1  UNL1       -0.1661
     22 H         141.4885  146.6556  160.3397 H       1  UNL1        0.1500
     23 S         140.6004  145.2566  161.5347 S.O2    1  UNL1        0.0611
     24 O         141.7059  144.4604  162.1623 O.2     1  UNL1       -0.1530
     25 O         139.4949  146.0527  160.9070 O.2     1  UNL1       -0.1530
     26 C         139.6861  144.8750  162.6609 C.ar    1  UNL1        0.1220
     27 C         138.3842  144.1889  162.3705 C.ar    1  UNL1        0.0199
     28 C         137.4700  143.8073  163.4968 C.ar    1  UNL1        0.0014
     29 C         137.8576  144.1119  164.9135 C.ar    1  UNL1        0.0001
     30 C         139.1595  144.7981  165.2039 C.ar    1  UNL1        0.0014
     31 C         140.0737  145.1796  164.0776 C.ar    1  UNL1        0.0199
     32 C         144.6370  130.1763  155.8139 C.3     1  UNL1        0.0992
     33 C         142.6972  126.7281  160.3247 C.3     1  UNL1        0.0897
     34 N         143.1822  127.5902  159.1970 N.3     1  UNL1       -0.2691
     35 C         144.1772  128.6810  159.4612 C.3     1  UNL1        0.0897
     36 C         144.6622  129.5431  158.3335 C.3     1  UNL1        0.0899
     37 N         144.1521  129.3143  156.9416 N.3     1  UNL1       -0.2665
     38 C         143.1570  128.2233  156.6774 C.3     1  UNL1        0.0899
     39 C         142.6721  127.3613  157.8051 C.3     1  UNL1        0.0897
@<TRIPOS>BOND
     1    33    34    1
     2    34    35    1
     3    35    36    1
     4    36    37    1
     5    37    32    1
     6    32     1    1
     7     1     2   ar
     8     2     3   ar
     9     3     4   ar
    10     4     5   ar
    11     5     6   ar
    12     5     7    1
    13     7     8    1
    14     8     9    2
    15     9    13    1
    16    13    14   ar
    17    14    15   ar
    18    15    16   ar
    19    16    18    1
    20    18    19    3
    21    19    20    1
    22    20    21    1
    23    21    23    1
    24    23    24    2
    25    23    25    2
    26    23    26    1
    27    26    27   ar
    28    27    28   ar
    29    28    29   ar
    30    29    30   ar
    31    30    31   ar
    32    16    17   ar
    33     9    10    1
    34    10    11    2
    35    11    12    1
    36    37    38    1
    37    38    39    1
    38    39    34    1
    39     6     1   ar
    40    12     8    1
    41    12     4    1
    42    17    13   ar
    43    31    26   ar
    44    21    22    1
@<TRIPOS>MOLECULE
*****
 39 44 0 0 0
SMALL
GASTEIGER

@<TRIPOS>ATOM
      1 C         143.9576  132.1322  155.7062 C.ar    1  UNL1       -0.0065
      2 C         143.0710  132.1044  154.4966 C.ar    1  UNL1       -0.0032
      3 C         142.2087  133.2878  154.1715 C.ar    1  UNL1       -0.0026
      4 C         142.2329  134.4991  155.0559 C.ar    1  UNL1        0.0019
      5 C         143.1195  134.5269  156.2655 C.ar    1  UNL1       -0.0200
      6 C         143.9818  133.3434  156.5906 C.ar    1  UNL1       -0.0071
      7 C         142.9332  135.8504  156.9464 C.3     1  UNL1        0.0519
      8 C         141.9315  136.6406  156.1576 C.2     1  UNL1        0.0074
      9 C         141.1973  137.9469  156.0909 C.2     1  UNL1        0.0976
     10 N         140.3107  137.9191  154.8813 N.2     1  UNL1       -0.1526
     11 N         140.4970  136.5956  154.2004 N.2     1  UNL1       -0.1678
     12 C         141.4986  135.8055  154.9892 C.3     1  UNL1        0.1672
     13 C         141.3269  139.0818  157.0631 C.ar    1  UNL1        0.0265
     14 C         142.5927  139.8118  157.4026 C.ar    1  UNL1        0.0376
     15 S         142.2616  140.8671  158.4159 S.2     1  UNL1       -0.0780
     16 C         140.7913  140.7894  158.7026 C.ar    1  UNL1        0.0710
     17 C         140.2137  139.6860  157.8666 C.ar    1  UNL1        0.0168
     18 C         140.0320  141.6618  159.6577 C.1     1  UNL1       -0.0564
     19 C         139.2726  142.5343  160.6129 C.1     1  UNL1       -0.0666
     20 C         138.5133  143.4067  161.5680 C.3     1  UNL1        0.1670
     21 N         137.5636  142.7916  162.5527 N.3     1  UNL1       -0.1661
     22 H         136.6751  142.6680  162.0671 H       1  UNL1        0.1500
     23 S         137.8944  141.4756  163.1921 S.O2    1  UNL1        0.0611
     24 O         137.0590  140.7675  162.1670 O.2     1  UNL1       -0.1530
     25 O         138.7297  142.1837  164.2172 O.2     1  UNL1       -0.1530
     26 C         138.2252  140.1597  163.8316 C.ar    1  UNL1        0.1220
     27 C         138.1858  140.0203  165.3245 C.ar    1  UNL1        0.0199
     28 C         138.5166  138.7044  165.9640 C.ar    1  UNL1        0.0014
     29 C         138.8868  137.5278  165.1104 C.ar    1  UNL1        0.0001
     30 C         138.9262  137.6671  163.6174 C.ar    1  UNL1        0.0014
     31 C         138.5954  138.9831  162.9780 C.ar    1  UNL1        0.0199
     32 C         144.8200  130.9487  156.0314 C.3     1  UNL1        0.0992
     33 C         142.7238  126.5966  159.5901 C.3     1  UNL1        0.0897
     34 N         143.2478  127.6846  158.7005 N.3     1  UNL1       -0.2691
     35 C         142.8847  127.7035  157.2453 C.3     1  UNL1        0.0897
     36 C         143.4087  128.7916  156.3555 C.3     1  UNL1        0.0899
     37 N         144.2959  129.8607  156.9211 N.3     1  UNL1       -0.2665
     38 C         144.6591  129.8417  158.3764 C.3     1  UNL1        0.0899
     39 C         144.1351  128.7537  159.2660 C.3     1  UNL1        0.0897
@<TRIPOS>BOND
     1    33    34    1
     2    34    35    1
     3    35    36    1
     4    36    37    1
     5    37    32    1
     6    32     1    1
     7     1     2   ar
     8     2     3   ar
     9     3     4   ar
    10     4     5   ar
    11     5     6   ar
    12     5     7    1
    13     7     8    1
    14     8     9    2
    15     9    13    1
    16    13    14   ar
    17    14    15   ar
    18    15    16   ar
    19    16    18    1
    20    18    19    3
    21    19    20    1
    22    20    21    1
    23    21    23    1
    24    23    24    2
    25    23    25    2
    26    23    26    1
    27    26    27   ar
    28    27    28   ar
    29    28    29   ar
    30    29    30   ar
    31    30    31   ar
    32    16    17   ar
    33     9    10    1
    34    10    11    2
    35    11    12    1
    36    37    38    1
    37    38    39    1
    38    39    34    1
    39     6     1   ar
    40    12     8    1
    41    12     4    1
    42    17    13   ar
    43    31    26   ar
    44    21    22    1
@<TRIPOS>MOLECULE
*****
 39 44 0 0 0
SMALL
GASTEIGER

@<TRIPOS>ATOM
      1 C         139.2027  139.3041  164.9958 C.ar    1  UNL1       -0.0065
      2 C         138.0324  140.1451  164.5800 C.ar    1  UNL1       -0.0032
      3 C         137.7254  140.3357  163.1242 C.ar    1  UNL1       -0.0026
      4 C         138.5888  139.6854  162.0842 C.ar    1  UNL1        0.0019
      5 C         139.7592  138.8444  162.5000 C.ar    1  UNL1       -0.0200
      6 C         140.0662  138.6538  163.9558 C.ar    1  UNL1       -0.0071
      7 C         140.4264  138.3322  161.2581 C.3     1  UNL1        0.0519
      8 C         139.6684  138.8566  160.0747 C.2     1  UNL1        0.0074
      9 C         139.6122  138.8640  158.5757 C.2     1  UNL1        0.0976
     10 N         138.4419  139.7050  158.1599 N.2     1  UNL1       -0.1526
     11 N         137.7747  140.2172  159.4019 N.2     1  UNL1       -0.1678
     12 C         138.5327  139.6929  160.5852 C.3     1  UNL1        0.1672
     13 C         140.5601  138.1550  157.6544 C.ar    1  UNL1        0.0265
     14 C         142.0291  138.4275  157.5205 C.ar    1  UNL1        0.0376
     15 S         142.5823  137.4899  156.4886 S.2     1  UNL1       -0.0780
     16 C         141.4552  136.6379  155.9847 C.ar    1  UNL1        0.0710
     17 C         140.2055  137.0490  156.7052 C.ar    1  UNL1        0.0168
     18 C         141.5595  135.5636  154.9432 C.1     1  UNL1       -0.0564
     19 C         141.6638  134.4891  153.9017 C.1     1  UNL1       -0.0666
     20 C         141.7682  133.4147  152.8602 C.3     1  UNL1        0.1670
     21 N         141.6589  131.9723  153.2570 N.3     1  UNL1       -0.1661
     22 H         142.0044  131.4233  152.4698 H       1  UNL1        0.1500
     23 S         142.3728  131.4743  154.4787 S.O2    1  UNL1        0.0611
     24 O         143.6849  131.5978  153.7622 O.2     1  UNL1       -0.1530
     25 O         141.0607  131.3510  155.1951 O.2     1  UNL1       -0.1530
     26 C         143.0866  130.9764  155.7003 C.ar    1  UNL1        0.1220
     27 C         142.7430  129.6341  156.2749 C.ar    1  UNL1        0.0199
     28 C         143.4569  129.1362  157.4965 C.ar    1  UNL1        0.0014
     29 C         144.5144  129.9806  158.1437 C.ar    1  UNL1        0.0001
     30 C         144.8580  131.3229  157.5691 C.ar    1  UNL1        0.0014
     31 C         144.1441  131.8208  156.3474 C.ar    1  UNL1        0.0199
     32 C         139.5097  139.1134  166.4517 C.3     1  UNL1        0.0992
     33 C         140.6210  143.8730  169.9318 C.3     1  UNL1        0.0897
     34 N         140.3432  142.6831  169.0618 N.3     1  UNL1       -0.2691
     35 C         140.6972  142.7205  167.6047 C.3     1  UNL1        0.0897
     36 C         140.4194  141.5305  166.7346 C.3     1  UNL1        0.0899
     37 N         139.7876  140.3033  167.3217 N.3     1  UNL1       -0.2665
     38 C         139.4335  140.2660  168.7789 C.3     1  UNL1        0.0899
     39 C         139.7113  141.4559  169.6489 C.3     1  UNL1        0.0897
@<TRIPOS>BOND
     1    33    34    1
     2    34    35    1
     3    35    36    1
     4    36    37    1
     5    37    32    1
     6    32     1    1
     7     1     2   ar
     8     2     3   ar
     9     3     4   ar
    10     4     5   ar
    11     5     6   ar
    12     5     7    1
    13     7     8    1
    14     8     9    2
    15     9    13    1
    16    13    14   ar
    17    14    15   ar
    18    15    16   ar
    19    16    18    1
    20    18    19    3
    21    19    20    1
    22    20    21    1
    23    21    23    1
    24    23    24    2
    25    23    25    2
    26    23    26    1
    27    26    27   ar
    28    27    28   ar
    29    28    29   ar
    30    29    30   ar
    31    30    31   ar
    32    16    17   ar
    33     9    10    1
    34    10    11    2
    35    11    12    1
    36    37    38    1
    37    38    39    1
    38    39    34    1
    39     6     1   ar
    40    12     8    1
    41    12     4    1
    42    17    13   ar
    43    31    26   ar
    44    21    22    1
@<TRIPOS>MOLECULE
*****
 39 44 0 0 0
SMALL
GASTEIGER

@<TRIPOS>ATOM
      1 C         139.0830  139.7118  167.9753 C.ar    1  UNL1       -0.0065
      2 C         137.9243  138.8756  167.5192 C.ar    1  UNL1       -0.0032
      3 C         137.8738  138.3700  166.1079 C.ar    1  UNL1       -0.0026
      4 C         138.9820  138.7008  165.1526 C.ar    1  UNL1        0.0019
      5 C         140.1407  139.5371  165.6087 C.ar    1  UNL1       -0.0200
      6 C         140.1912  140.0426  167.0200 C.ar    1  UNL1       -0.0071
      7 C         141.0794  139.6995  164.4501 C.3     1  UNL1        0.0519
      8 C         140.5009  138.9636  163.2780 C.2     1  UNL1        0.0074
      9 C         140.7236  138.6092  161.8376 C.2     1  UNL1        0.0976
     10 N         139.5649  137.7729  161.3815 N.2     1  UNL1       -0.1526
     11 N         138.6261  137.6105  162.5401 N.2     1  UNL1       -0.1678
     12 C         139.2046  138.3463  163.7121 C.3     1  UNL1        0.1672
     13 C         141.8986  139.0191  161.0002 C.ar    1  UNL1        0.0265
     14 C         143.3436  138.8548  161.3680 C.ar    1  UNL1        0.0376
     15 S         144.1730  139.3995  160.2432 S.2     1  UNL1       -0.0780
     16 C         143.2408  139.9004  159.1801 C.ar    1  UNL1        0.0710
     17 C         141.8351  139.6653  159.6480 C.ar    1  UNL1        0.0168
     18 C         143.6434  140.5265  157.8779 C.1     1  UNL1       -0.0564
     19 C         144.0461  141.1526  156.5756 C.1     1  UNL1       -0.0666
     20 C         144.4488  141.7787  155.2734 C.3     1  UNL1        0.1670
     21 N         145.3320  142.9910  155.2654 N.3     1  UNL1       -0.1661
     22 H         145.3185  143.3713  156.2118 H       1  UNL1        0.1500
     23 S         146.7734  142.8662  154.8694 S.O2    1  UNL1        0.0611
     24 O         146.4003  143.1046  153.4361 O.2     1  UNL1       -0.1530
     25 O         147.1466  142.6279  156.3025 O.2     1  UNL1       -0.1530
     26 C         148.2148  142.7415  154.4734 C.ar    1  UNL1        0.1220
     27 C         148.7407  143.5171  153.3021 C.ar    1  UNL1        0.0199
     28 C         150.1820  143.3924  152.9061 C.ar    1  UNL1        0.0014
     29 C         151.0976  142.4919  153.6814 C.ar    1  UNL1        0.0001
     30 C         150.5717  141.7162  154.8526 C.ar    1  UNL1        0.0014
     31 C         149.1303  141.8410  155.2486 C.ar    1  UNL1        0.0199
     32 C         139.1336  140.2174  169.3866 C.3     1  UNL1        0.0992
     33 C         143.5774  143.8617  171.1104 C.3     1  UNL1        0.0897
     34 N         142.4665  142.9506  170.6795 N.3     1  UNL1       -0.2691
     35 C         142.5536  141.4789  170.9558 C.3     1  UNL1        0.0897
     36 C         141.4426  140.5678  170.5249 C.3     1  UNL1        0.0899
     37 N         140.2446  141.1284  169.8176 N.3     1  UNL1       -0.2665
     38 C         140.1575  142.6002  169.5412 C.3     1  UNL1        0.0899
     39 C         141.2684  143.5113  169.9722 C.3     1  UNL1        0.0897
@<TRIPOS>BOND
     1    33    34    1
     2    34    35    1
     3    35    36    1
     4    36    37    1
     5    37    32    1
     6    32     1    1
     7     1     2   ar
     8     2     3   ar
     9     3     4   ar
    10     4     5   ar
    11     5     6   ar
    12     5     7    1
    13     7     8    1
    14     8     9    2
    15     9    13    1
    16    13    14   ar
    17    14    15   ar
    18    15    16   ar
    19    16    18    1
    20    18    19    3
    21    19    20    1
    22    20    21    1
    23    21    23    1
    24    23    24    2
    25    23    25    2
    26    23    26    1
    27    26    27   ar
    28    27    28   ar
    29    28    29   ar
    30    29    30   ar
    31    30    31   ar
    32    16    17   ar
    33     9    10    1
    34    10    11    2
    35    11    12    1
    36    37    38    1
    37    38    39    1
    38    39    34    1
    39     6     1   ar
    40    12     8    1
    41    12     4    1
    42    17    13   ar
    43    31    26   ar
    44    21    22    1
