@<TRIPOS>MOLECULE
*****
 36 39 0 0 0
SMALL
GASTEIGER

@<TRIPOS>ATOM
      1 C         139.6367  141.0328  160.1763 C.3     1  UNL1        0.0545
      2 C         139.3666  139.7254  159.4923 C.3     1  UNL1        0.0162
      3 C         140.5391  138.8227  159.7379 C.3     1  UNL1        0.0100
      4 C         141.5339  139.5721  160.5737 C.3     1  UNL1        0.0704
      5 C         140.9762  140.9380  160.8447 C.3     1  UNL1        0.0243
      6 C         142.6961  140.0573  161.3885 C.2     1  UNL1        0.2248
      7 O         143.9775  140.4440  160.7114 O.2     1  UNL1       -0.2749
      8 N         142.5770  140.1557  162.8806 N.am    1  UNL1       -0.2760
      9 C         143.7391  140.6408  163.6955 C.3     1  UNL1        0.1149
     10 C         143.6199  140.7392  165.1875 C.3     1  UNL1        0.1137
     11 N         142.3386  140.3524  165.8646 N.pl3   1  UNL1       -0.2883
     12 C         141.1764  139.8673  165.0498 C.3     1  UNL1        0.1137
     13 C         141.2956  139.7689  163.5577 C.3     1  UNL1        0.1149
     14 C         142.2194  140.4508  167.3567 C.ar    1  UNL1        0.1535
     15 C         141.4015  141.5469  167.9730 C.ar    1  UNL1        0.0416
     16 C         141.2823  141.6452  169.4650 C.ar    1  UNL1        0.0951
     17 C         141.9809  140.6476  170.3406 C.ar    1  UNL1        0.1261
     18 N         142.7987  139.5516  169.7243 N.ar    1  UNL1       -0.1453
     19 N         142.9179  139.4532  168.2323 N.ar    1  UNL1       -0.1329
     20 C         140.4645  142.7412  170.0814 C.3     1  UNL1        0.4202
     21 F         139.6467  143.8372  170.6978 F       1  UNL1       -0.1658
     22 F         141.6284  143.6793  169.9577 F       1  UNL1       -0.1658
     23 F         139.3006  141.8031  170.2052 F       1  UNL1       -0.1658
     24 C         142.3345  138.3077  160.4732 C.3     1  UNL1        0.0082
     25 C         142.7750  137.8036  159.1308 C.3     1  UNL1        0.0005
     26 C         142.6776  137.6615  161.1315 C.3     1  UNL1        0.0005
     27 N         138.7271  142.2254  160.1896 N.3     1  UNL1       -0.2975
     28 H         138.8895  142.7293  159.3177 H       1  UNL1        0.1232
     29 C         138.0220  143.0523  162.5495 C.3     1  UNL1        0.1591
     30 C         138.1219  144.0594  163.6566 C.3     1  UNL1        0.1729
     31 O         139.0269  145.2467  163.5110 O.3     1  UNL1       -0.3511
     32 C         139.8319  145.4270  162.2582 C.3     1  UNL1        0.1437
     33 C         139.7320  144.4199  161.1511 C.3     1  UNL1        0.0503
     34 C         138.8270  143.2325  161.2968 C.3     1  UNL1        0.0865
     35 C         137.6464  140.5844  163.2697 C.3     1  UNL1        0.1742
     36 O         137.1171  141.8649  162.6951 O.3     1  UNL1       -0.3496
@<TRIPOS>BOND
     1    35    36    1
     2    29    36    1
     3    29    30    1
     4    30    31    1
     5    31    32    1
     6    32    33    1
     7    33    34    1
     8    34    27    1
     9     1    27    1
    10     1     2    1
    11     2     3    1
    12     3     4    1
    13     4     6    1
    14     6     7    2
    15     6     8   am
    16     8     9    1
    17     9    10    1
    18    10    11    1
    19    11    14    1
    20    14    15   ar
    21    15    16   ar
    22    16    20    1
    23    20    21    1
    24    20    22    1
    25    20    23    1
    26    16    17   ar
    27    17    18   ar
    28    18    19   ar
    29    11    12    1
    30    12    13    1
    31     4    24    1
    32    24    25    1
    33    24    26    1
    34     4     5    1
    35    34    29    1
    36     5     1    1
    37    13     8    1
    38    19    14   ar
    39    27    28    1
@<TRIPOS>MOLECULE
*****
 36 39 0 0 0
SMALL
GASTEIGER

@<TRIPOS>ATOM
      1 C         138.5201  142.4379  164.3336 C.3     1  UNL1        0.0545
      2 C         138.0270  143.8303  164.0726 C.3     1  UNL1        0.0162
      3 C         139.2131  144.6885  163.7459 C.3     1  UNL1        0.0100
      4 C         140.4392  143.8265  163.8049 C.3     1  UNL1        0.0704
      5 C         140.0109  142.4355  164.1681 C.3     1  UNL1        0.0243
      6 C         141.8150  143.2291  163.7872 C.2     1  UNL1        0.2248
      7 O         142.6004  143.1169  165.0602 O.2     1  UNL1       -0.2749
      8 N         142.4055  142.7439  162.4965 N.am    1  UNL1       -0.2760
      9 C         143.7812  142.1465  162.4787 C.3     1  UNL1        0.1149
     10 C         144.3716  141.6613  161.1880 C.3     1  UNL1        0.1137
     11 N         143.5862  141.7735  159.9150 N.pl3   1  UNL1       -0.2883
     12 C         142.2104  142.3709  159.9327 C.3     1  UNL1        0.1137
     13 C         141.6200  142.8561  161.2235 C.3     1  UNL1        0.1149
     14 C         144.1766  141.2883  158.6242 C.ar    1  UNL1        0.1535
     15 C         145.0996  142.1748  157.8416 C.ar    1  UNL1        0.0416
     16 C         145.6900  141.6896  156.5509 C.ar    1  UNL1        0.0951
     17 C         145.3574  140.3181  156.0427 C.ar    1  UNL1        0.1261
     18 N         144.4344  139.4317  156.8252 N.ar    1  UNL1       -0.1453
     19 N         143.8440  139.9168  158.1160 N.ar    1  UNL1       -0.1329
     20 C         146.6129  142.5759  155.7683 C.3     1  UNL1        0.4202
     21 F         147.5359  143.4623  154.9857 F       1  UNL1       -0.1658
     22 F         147.2388  143.0520  157.0456 F       1  UNL1       -0.1658
     23 F         145.9871  142.0999  154.4909 F       1  UNL1       -0.1658
     24 C         141.1551  145.0925  163.4380 C.3     1  UNL1        0.0082
     25 C         140.6262  145.9605  162.3349 C.3     1  UNL1        0.0005
     26 C         141.9647  145.5415  163.7720 C.3     1  UNL1        0.0005
     27 N         137.6714  141.2554  164.6963 N.3     1  UNL1       -0.2975
     28 H         137.5697  141.2662  165.7111 H       1  UNL1        0.1232
     29 C         138.5351  138.9039  165.3849 C.3     1  UNL1        0.1591
     30 C         138.9762  137.5205  165.0086 C.3     1  UNL1        0.1729
     31 O         138.9946  137.1052  163.5673 O.3     1  UNL1       -0.3511
     32 C         138.5719  138.0733  162.5024 C.3     1  UNL1        0.1437
     33 C         138.1309  139.4567  162.8787 C.3     1  UNL1        0.0503
     34 C         138.1125  139.8720  164.3200 C.3     1  UNL1        0.0865
     35 C         139.7265  139.9622  167.4369 C.3     1  UNL1        0.1742
     36 O         138.5167  139.3192  166.8261 O.3     1  UNL1       -0.3496
@<TRIPOS>BOND
     1    35    36    1
     2    29    36    1
     3    29    30    1
     4    30    31    1
     5    31    32    1
     6    32    33    1
     7    33    34    1
     8    34    27    1
     9     1    27    1
    10     1     2    1
    11     2     3    1
    12     3     4    1
    13     4     6    1
    14     6     7    2
    15     6     8   am
    16     8     9    1
    17     9    10    1
    18    10    11    1
    19    11    14    1
    20    14    15   ar
    21    15    16   ar
    22    16    20    1
    23    20    21    1
    24    20    22    1
    25    20    23    1
    26    16    17   ar
    27    17    18   ar
    28    18    19   ar
    29    11    12    1
    30    12    13    1
    31     4    24    1
    32    24    25    1
    33    24    26    1
    34     4     5    1
    35    34    29    1
    36     5     1    1
    37    13     8    1
    38    19    14   ar
    39    27    28    1
@<TRIPOS>MOLECULE
*****
 36 39 0 0 0
SMALL
GASTEIGER

@<TRIPOS>ATOM
      1 C         141.2720  141.8434  164.3852 C.3     1  UNL1        0.0545
      2 C         141.4999  140.9756  165.5873 C.3     1  UNL1        0.0162
      3 C         140.8860  139.6346  165.3142 C.3     1  UNL1        0.0100
      4 C         140.2786  139.6734  163.9432 C.3     1  UNL1        0.0704
      5 C         140.5172  141.0385  163.3691 C.3     1  UNL1        0.0243
      6 C         139.5914  139.4157  162.6350 C.2     1  UNL1        0.2248
      7 O         138.0994  139.5344  162.5354 O.2     1  UNL1       -0.2749
      8 N         140.3961  139.0393  161.4264 N.am    1  UNL1       -0.2760
      9 C         139.7090  138.7816  160.1182 C.3     1  UNL1        0.1149
     10 C         140.5138  138.4052  158.9096 C.3     1  UNL1        0.1137
     11 N         142.0058  138.2866  159.0093 N.pl3   1  UNL1       -0.2883
     12 C         142.6929  138.5443  160.3175 C.3     1  UNL1        0.1137
     13 C         141.8881  138.9207  161.5260 C.3     1  UNL1        0.1149
     14 C         142.8106  137.9102  157.8007 C.ar    1  UNL1        0.1535
     15 C         142.8045  136.4937  157.3070 C.ar    1  UNL1        0.0416
     16 C         143.6093  136.1173  156.0984 C.ar    1  UNL1        0.0951
     17 C         144.4202  137.1573  155.3837 C.ar    1  UNL1        0.1261
     18 N         144.4263  138.5737  155.8774 N.ar    1  UNL1       -0.1453
     19 N         143.6214  138.9501  157.0859 N.ar    1  UNL1       -0.1329
     20 C         143.6033  134.7010  155.6046 C.3     1  UNL1        0.4202
     21 F         143.5973  133.2846  155.1109 F       1  UNL1       -0.1658
     22 F         143.0280  135.1592  154.2973 F       1  UNL1       -0.1658
     23 F         144.1785  134.2428  156.9120 F       1  UNL1       -0.1658
     24 C         139.8964  138.2545  164.2438 C.3     1  UNL1        0.0082
     25 C         140.9596  137.2073  164.3955 C.3     1  UNL1        0.0005
     26 C         139.0385  137.7917  164.3802 C.3     1  UNL1        0.0005
     27 N         141.7202  143.2661  164.2270 N.3     1  UNL1       -0.2975
     28 H         141.4250  143.7630  165.0674 H       1  UNL1        0.1232
     29 C         140.0437  144.9612  163.1944 C.3     1  UNL1        0.1591
     30 C         139.5703  145.7708  162.0239 C.3     1  UNL1        0.1729
     31 O         140.2997  145.6952  160.7154 O.3     1  UNL1       -0.3511
     32 C         141.5026  144.8098  160.5774 C.3     1  UNL1        0.1437
     33 C         141.9761  144.0001  161.7479 C.3     1  UNL1        0.0503
     34 C         141.2466  144.0758  163.0564 C.3     1  UNL1        0.0865
     35 C         138.1089  144.1763  164.7405 C.3     1  UNL1        0.1742
     36 O         139.3143  145.0368  164.5029 O.3     1  UNL1       -0.3496
@<TRIPOS>BOND
     1    35    36    1
     2    29    36    1
     3    29    30    1
     4    30    31    1
     5    31    32    1
     6    32    33    1
     7    33    34    1
     8    34    27    1
     9     1    27    1
    10     1     2    1
    11     2     3    1
    12     3     4    1
    13     4     6    1
    14     6     7    2
    15     6     8   am
    16     8     9    1
    17     9    10    1
    18    10    11    1
    19    11    14    1
    20    14    15   ar
    21    15    16   ar
    22    16    20    1
    23    20    21    1
    24    20    22    1
    25    20    23    1
    26    16    17   ar
    27    17    18   ar
    28    18    19   ar
    29    11    12    1
    30    12    13    1
    31     4    24    1
    32    24    25    1
    33    24    26    1
    34     4     5    1
    35    34    29    1
    36     5     1    1
    37    13     8    1
    38    19    14   ar
    39    27    28    1
@<TRIPOS>MOLECULE
*****
 36 39 0 0 0
SMALL
GASTEIGER

@<TRIPOS>ATOM
      1 C         141.4826  141.5329  160.0906 C.3     1  UNL1        0.0545
      2 C         142.9453  141.5002  159.7599 C.3     1  UNL1        0.0162
      3 C         143.5536  140.3238  160.4642 C.3     1  UNL1        0.0100
      4 C         142.4668  139.6294  161.2302 C.3     1  UNL1        0.0704
      5 C         141.1869  140.3767  160.9993 C.3     1  UNL1        0.0243
      6 C         141.6102  138.7400  162.0817 C.2     1  UNL1        0.2248
      7 O         141.1510  137.4128  161.5547 O.2     1  UNL1       -0.2749
      8 N         141.2126  139.1778  163.4602 N.am    1  UNL1       -0.2760
      9 C         140.3559  138.2884  164.3118 C.3     1  UNL1        0.1149
     10 C         139.9584  138.7263  165.6903 C.3     1  UNL1        0.1137
     11 N         140.4175  140.0535  166.2172 N.pl3   1  UNL1       -0.2883
     12 C         141.2742  140.9428  165.3657 C.3     1  UNL1        0.1137
     13 C         141.6717  140.5050  163.9872 C.3     1  UNL1        0.1149
     14 C         140.0200  140.4914  167.5957 C.ar    1  UNL1        0.1535
     15 C         140.4836  141.8163  168.1246 C.ar    1  UNL1        0.0416
     16 C         140.0861  142.2542  169.5031 C.ar    1  UNL1        0.0951
     17 C         139.2250  141.3672  170.3527 C.ar    1  UNL1        0.1261
     18 N         138.7614  140.0423  169.8238 N.ar    1  UNL1       -0.1453
     19 N         139.1589  139.6044  168.4453 N.ar    1  UNL1       -0.1329
     20 C         140.5496  143.5790  170.0321 C.3     1  UNL1        0.4202
     21 F         141.0132  144.9039  170.5611 F       1  UNL1       -0.1658
     22 F         139.3037  143.6842  170.8607 F       1  UNL1       -0.1658
     23 F         141.7956  143.4739  169.2035 F       1  UNL1       -0.1658
     24 C         143.5677  138.6963  161.6391 C.3     1  UNL1        0.0082
     25 C         144.4258  139.0227  162.8253 C.3     1  UNL1        0.0005
     26 C         143.9018  137.8387  161.2905 C.3     1  UNL1        0.0005
     27 N         140.4899  142.5442  159.5989 N.3     1  UNL1       -0.2975
     28 H         140.9446  143.0616  158.8466 H       1  UNL1        0.1232
     29 C         140.4707  144.9595  160.5561 C.3     1  UNL1        0.1591
     30 C         139.9061  145.9774  161.5021 C.3     1  UNL1        0.1729
     31 O         138.7959  145.5982  162.4368 O.3     1  UNL1       -0.3511
     32 C         138.2504  144.2010  162.4256 C.3     1  UNL1        0.1437
     33 C         138.8151  143.1830  161.4796 C.3     1  UNL1        0.0503
     34 C         139.9252  143.5623  160.5449 C.3     1  UNL1        0.0865
     35 C         141.2788  145.6510  158.1857 C.3     1  UNL1        0.1742
     36 O         141.5809  145.3387  159.6214 O.3     1  UNL1       -0.3496
@<TRIPOS>BOND
     1    35    36    1
     2    29    36    1
     3    29    30    1
     4    30    31    1
     5    31    32    1
     6    32    33    1
     7    33    34    1
     8    34    27    1
     9     1    27    1
    10     1     2    1
    11     2     3    1
    12     3     4    1
    13     4     6    1
    14     6     7    2
    15     6     8   am
    16     8     9    1
    17     9    10    1
    18    10    11    1
    19    11    14    1
    20    14    15   ar
    21    15    16   ar
    22    16    20    1
    23    20    21    1
    24    20    22    1
    25    20    23    1
    26    16    17   ar
    27    17    18   ar
    28    18    19   ar
    29    11    12    1
    30    12    13    1
    31     4    24    1
    32    24    25    1
    33    24    26    1
    34     4     5    1
    35    34    29    1
    36     5     1    1
    37    13     8    1
    38    19    14   ar
    39    27    28    1
@<TRIPOS>MOLECULE
*****
 36 39 0 0 0
SMALL
GASTEIGER

@<TRIPOS>ATOM
      1 C         139.0436  140.4579  165.4926 C.3     1  UNL1        0.0545
      2 C         139.0942  139.4179  166.5723 C.3     1  UNL1        0.0162
      3 C         140.5329  139.0663  166.8103 C.3     1  UNL1        0.0100
      4 C         141.3715  139.8890  165.8775 C.3     1  UNL1        0.0704
      5 C         140.4510  140.7491  165.0632 C.3     1  UNL1        0.0243
      6 C         142.4495  140.5613  165.0802 C.2     1  UNL1        0.2248
      7 O         143.3328  141.5863  165.7276 O.2     1  UNL1       -0.2749
      8 N         142.6443  140.2087  163.6352 N.am    1  UNL1       -0.2760
      9 C         143.7223  140.8809  162.8378 C.3     1  UNL1        0.1149
     10 C         143.9170  140.5282  161.3929 C.3     1  UNL1        0.1137
     11 N         143.0337  139.5033  160.7455 N.pl3   1  UNL1       -0.2883
     12 C         141.9557  138.8310  161.5429 C.3     1  UNL1        0.1137
     13 C         141.7610  139.1837  162.9878 C.3     1  UNL1        0.1149
     14 C         143.2284  139.1506  159.3006 C.ar    1  UNL1        0.1535
     15 C         142.6161  137.8989  158.7451 C.ar    1  UNL1        0.0416
     16 C         142.8108  137.5462  157.3002 C.ar    1  UNL1        0.0951
     17 C         143.6177  138.4451  156.4109 C.ar    1  UNL1        0.1261
     18 N         144.2299  139.6967  156.9664 N.ar    1  UNL1       -0.1453
     19 N         144.0352  140.0494  158.4112 N.ar    1  UNL1       -0.1329
     20 C         142.1987  136.2946  156.7446 C.3     1  UNL1        0.4202
     21 F         141.5865  135.0430  156.1890 F       1  UNL1       -0.1658
     22 F         143.5569  135.6621  156.6729 F       1  UNL1       -0.1658
     23 F         140.8404  136.9271  156.8163 F       1  UNL1       -0.1658
     24 C         142.5172  139.1696  166.5252 C.3     1  UNL1        0.0082
     25 C         142.7617  139.3204  167.9974 C.3     1  UNL1        0.0005
     26 C         143.2185  138.5633  166.1945 C.3     1  UNL1        0.0005
     27 N         137.8033  141.0949  164.9394 N.3     1  UNL1       -0.2975
     28 H         137.2106  140.3381  164.5985 H       1  UNL1        0.1232
     29 C         137.9469  141.6358  162.4023 C.3     1  UNL1        0.1591
     30 C         138.0504  142.6387  161.2917 C.3     1  UNL1        0.1729
     31 O         138.1136  144.1037  161.6076 O.3     1  UNL1       -0.3511
     32 C         138.0734  144.5658  163.0341 C.3     1  UNL1        0.1437
     33 C         137.9700  143.5629  164.1447 C.3     1  UNL1        0.0503
     34 C         137.9068  142.0979  163.8288 C.3     1  UNL1        0.0865
     35 C         138.1429  139.6932  160.6884 C.3     1  UNL1        0.1742
     36 O         137.8837  140.1708  162.0864 O.3     1  UNL1       -0.3496
@<TRIPOS>BOND
     1    35    36    1
     2    29    36    1
     3    29    30    1
     4    30    31    1
     5    31    32    1
     6    32    33    1
     7    33    34    1
     8    34    27    1
     9     1    27    1
    10     1     2    1
    11     2     3    1
    12     3     4    1
    13     4     6    1
    14     6     7    2
    15     6     8   am
    16     8     9    1
    17     9    10    1
    18    10    11    1
    19    11    14    1
    20    14    15   ar
    21    15    16   ar
    22    16    20    1
    23    20    21    1
    24    20    22    1
    25    20    23    1
    26    16    17   ar
    27    17    18   ar
    28    18    19   ar
    29    11    12    1
    30    12    13    1
    31     4    24    1
    32    24    25    1
    33    24    26    1
    34     4     5    1
    35    34    29    1
    36     5     1    1
    37    13     8    1
    38    19    14   ar
    39    27    28    1
@<TRIPOS>MOLECULE
*****
 36 39 0 0 0
SMALL
GASTEIGER

@<TRIPOS>ATOM
      1 C         142.5680  142.0847  160.1703 C.3     1  UNL1        0.0545
      2 C         143.7342  141.4798  159.4464 C.3     1  UNL1        0.0162
      3 C         143.7631  140.0128  159.7582 C.3     1  UNL1        0.0100
      4 C         142.6147  139.7111  160.6748 C.3     1  UNL1        0.0704
      5 C         141.8761  140.9916  160.9295 C.3     1  UNL1        0.0243
      6 C         141.5753  139.1157  161.5776 C.2     1  UNL1        0.2248
      7 O         140.4586  138.2982  160.9991 O.2     1  UNL1       -0.2749
      8 N         141.6525  139.3378  163.0591 N.am    1  UNL1       -0.2760
      9 C         140.6131  138.7425  163.9620 C.3     1  UNL1        0.1149
     10 C         140.6904  138.9647  165.4435 C.3     1  UNL1        0.1137
     11 N         141.8071  139.7822  166.0220 N.pl3   1  UNL1       -0.2883
     12 C         142.8465  140.3775  165.1191 C.3     1  UNL1        0.1137
     13 C         142.7692  140.1554  163.6377 C.3     1  UNL1        0.1149
     14 C         141.8844  140.0043  167.5035 C.ar    1  UNL1        0.1535
     15 C         140.9773  141.0021  168.1605 C.ar    1  UNL1        0.0416
     16 C         141.0546  141.2243  169.6419 C.ar    1  UNL1        0.0951
     17 C         142.0389  140.4488  170.4663 C.ar    1  UNL1        0.1261
     18 N         142.9460  139.4510  169.8093 N.ar    1  UNL1       -0.1453
     19 N         142.8687  139.2289  168.3278 N.ar    1  UNL1       -0.1329
     20 C         140.1475  142.2220  170.2990 C.3     1  UNL1        0.4202
     21 F         139.2405  143.2197  170.9561 F       1  UNL1       -0.1658
     22 F         141.3012  143.1678  170.4556 F       1  UNL1       -0.1658
     23 F         138.9938  141.2763  170.1425 F       1  UNL1       -0.1658
     24 C         143.1359  138.3062  160.6088 C.3     1  UNL1        0.0082
     25 C         142.9090  137.4790  159.3783 C.3     1  UNL1        0.0005
     26 C         143.6393  137.7337  161.2314 C.3     1  UNL1        0.0005
     27 N         142.1646  143.5291  160.1404 N.3     1  UNL1       -0.2975
     28 H         143.0201  144.0714  160.0198 H       1  UNL1        0.1232
     29 C         142.2007  144.6909  162.4639 C.3     1  UNL1        0.1591
     30 C         141.4690  145.2895  163.6285 C.3     1  UNL1        0.1729
     31 O         139.9695  145.3251  163.6341 O.3     1  UNL1       -0.3511
     32 C         139.2016  144.7620  162.4751 C.3     1  UNL1        0.1437
     33 C         139.9333  144.1633  161.3106 C.3     1  UNL1        0.0503
     34 C         141.4329  144.1278  161.3050 C.3     1  UNL1        0.0865
     35 C         144.4244  143.4651  163.0141 C.3     1  UNL1        0.1742
     36 O         143.7003  144.6554  162.4584 O.3     1  UNL1       -0.3496
@<TRIPOS>BOND
     1    35    36    1
     2    29    36    1
     3    29    30    1
     4    30    31    1
     5    31    32    1
     6    32    33    1
     7    33    34    1
     8    34    27    1
     9     1    27    1
    10     1     2    1
    11     2     3    1
    12     3     4    1
    13     4     6    1
    14     6     7    2
    15     6     8   am
    16     8     9    1
    17     9    10    1
    18    10    11    1
    19    11    14    1
    20    14    15   ar
    21    15    16   ar
    22    16    20    1
    23    20    21    1
    24    20    22    1
    25    20    23    1
    26    16    17   ar
    27    17    18   ar
    28    18    19   ar
    29    11    12    1
    30    12    13    1
    31     4    24    1
    32    24    25    1
    33    24    26    1
    34     4     5    1
    35    34    29    1
    36     5     1    1
    37    13     8    1
    38    19    14   ar
    39    27    28    1
@<TRIPOS>MOLECULE
*****
 36 39 0 0 0
SMALL
GASTEIGER

@<TRIPOS>ATOM
      1 C         142.3547  142.2284  160.1456 C.3     1  UNL1        0.0545
      2 C         141.3844  142.7732  159.1398 C.3     1  UNL1        0.0162
      3 C         140.1610  141.9055  159.1587 C.3     1  UNL1        0.0100
      4 C         140.3752  140.8244  160.1762 C.3     1  UNL1        0.0704
      5 C         141.7310  141.0240  160.7861 C.3     1  UNL1        0.0243
      6 C         140.3028  139.6503  161.1069 C.2     1  UNL1        0.2248
      7 O         140.3743  138.2550  160.5610 O.2     1  UNL1       -0.2749
      8 N         140.1590  139.8715  162.5835 N.am    1  UNL1       -0.2760
      9 C         140.0866  138.6975  163.5143 C.3     1  UNL1        0.1149
     10 C         139.9428  138.9187  164.9909 C.3     1  UNL1        0.1137
     11 N         139.8714  140.3141  165.5368 N.pl3   1  UNL1       -0.2883
     12 C         139.9437  141.4881  164.6060 C.3     1  UNL1        0.1137
     13 C         140.0876  141.2668  163.1294 C.3     1  UNL1        0.1149
     14 C         139.7276  140.5353  167.0134 C.ar    1  UNL1        0.1535
     15 C         140.3074  141.7650  167.6474 C.ar    1  UNL1        0.0416
     16 C         140.1636  141.9862  169.1240 C.ar    1  UNL1        0.0951
     17 C         139.4400  140.9780  169.9665 C.ar    1  UNL1        0.1261
     18 N         138.8603  139.7484  169.3325 N.ar    1  UNL1       -0.1453
     19 N         139.0041  139.5271  167.8559 N.ar    1  UNL1       -0.1329
     20 C         140.7433  143.2158  169.7581 C.3     1  UNL1        0.4202
     21 F         141.3231  144.4453  170.3922 F       1  UNL1       -0.1658
     22 F         139.5254  143.3434  170.6243 F       1  UNL1       -0.1658
     23 F         141.9613  143.0882  168.8919 F       1  UNL1       -0.1658
     24 C         139.0043  140.3795  159.7609 C.3     1  UNL1        0.0082
     25 C         138.7574  139.9263  158.3524 C.3     1  UNL1        0.0005
     26 C         138.1403  140.3023  160.2260 C.3     1  UNL1        0.0005
     27 N         143.7107  142.7894  160.4562 N.3     1  UNL1       -0.2975
     28 H         144.3836  142.2542  159.9075 H       1  UNL1        0.1232
     29 C         143.7800  143.8796  162.8136 C.3     1  UNL1        0.1591
     30 C         144.2825  143.8875  164.2268 C.3     1  UNL1        0.1729
     31 O         145.2183  142.8132  164.6961 O.3     1  UNL1       -0.3511
     32 C         145.6516  141.7310  163.7521 C.3     1  UNL1        0.1437
     33 C         145.1491  141.7231  162.3389 C.3     1  UNL1        0.0503
     34 C         144.2133  142.7974  161.8696 C.3     1  UNL1        0.0865
     35 C         141.4736  145.0685  162.9427 C.3     1  UNL1        0.1742
     36 O         142.8442  144.9538  162.3443 O.3     1  UNL1       -0.3496
@<TRIPOS>BOND
     1    35    36    1
     2    29    36    1
     3    29    30    1
     4    30    31    1
     5    31    32    1
     6    32    33    1
     7    33    34    1
     8    34    27    1
     9     1    27    1
    10     1     2    1
    11     2     3    1
    12     3     4    1
    13     4     6    1
    14     6     7    2
    15     6     8   am
    16     8     9    1
    17     9    10    1
    18    10    11    1
    19    11    14    1
    20    14    15   ar
    21    15    16   ar
    22    16    20    1
    23    20    21    1
    24    20    22    1
    25    20    23    1
    26    16    17   ar
    27    17    18   ar
    28    18    19   ar
    29    11    12    1
    30    12    13    1
    31     4    24    1
    32    24    25    1
    33    24    26    1
    34     4     5    1
    35    34    29    1
    36     5     1    1
    37    13     8    1
    38    19    14   ar
    39    27    28    1
@<TRIPOS>MOLECULE
*****
 36 39 0 0 0
SMALL
GASTEIGER

@<TRIPOS>ATOM
      1 C         142.6255  140.3437  165.2355 C.3     1  UNL1        0.0545
      2 C         141.7278  140.3887  166.4364 C.3     1  UNL1        0.0162
      3 C         140.5169  139.5540  166.1416 C.3     1  UNL1        0.0100
      4 C         140.6661  138.9931  164.7585 C.3     1  UNL1        0.0704
      5 C         141.9693  139.4812  164.1985 C.3     1  UNL1        0.0243
      6 C         140.5374  138.2999  163.4345 C.2     1  UNL1        0.2248
      7 O         140.9235  136.8565  163.3030 O.2     1  UNL1       -0.2749
      8 N         140.0224  139.0501  162.2420 N.am    1  UNL1       -0.2760
      9 C         139.8936  138.3570  160.9181 C.3     1  UNL1        0.1149
     10 C         139.3786  139.1073  159.7257 C.3     1  UNL1        0.1137
     11 N         138.9924  140.5507  159.8572 N.pl3   1  UNL1       -0.2883
     12 C         139.1212  141.2439  161.1812 C.3     1  UNL1        0.1137
     13 C         139.6362  140.4936  162.3736 C.3     1  UNL1        0.1149
     14 C         138.4774  141.3010  158.6648 C.ar    1  UNL1        0.1535
     15 C         137.3649  140.7252  157.8395 C.ar    1  UNL1        0.0416
     16 C         136.8500  141.4755  156.6471 C.ar    1  UNL1        0.0951
     17 C         137.4473  142.8015  156.2800 C.ar    1  UNL1        0.1261
     18 N         138.5597  143.3773  157.1052 N.ar    1  UNL1       -0.1453
     19 N         139.0747  142.6270  158.2976 N.ar    1  UNL1       -0.1329
     20 C         135.7376  140.8998  155.8218 C.3     1  UNL1        0.4202
     21 F         134.6252  140.3240  154.9965 F       1  UNL1       -0.1658
     22 F         136.4145  141.3819  154.5731 F       1  UNL1       -0.1658
     23 F         135.0607  140.4176  157.0705 F       1  UNL1       -0.1658
     24 C         139.3361  138.3602  165.0417 C.3     1  UNL1        0.0082
     25 C         138.1871  139.2050  165.5067 C.3     1  UNL1        0.0005
     26 C         138.9935  137.4387  164.9946 C.3     1  UNL1        0.0005
     27 N         143.9472  141.0391  165.0961 N.3     1  UNL1       -0.2975
     28 H         144.2379  141.3100  166.0355 H       1  UNL1        0.1232
     29 C         144.6076  142.1523  162.8434 C.3     1  UNL1        0.1591
     30 C         144.7241  143.3763  161.9842 C.3     1  UNL1        0.1729
     31 O         144.2967  144.7112  162.5185 O.3     1  UNL1       -0.3511
     32 C         143.7528  144.8220  163.9120 C.3     1  UNL1        0.1437
     33 C         143.6363  143.5980  164.7712 C.3     1  UNL1        0.0503
     34 C         144.0637  142.2632  164.2369 C.3     1  UNL1        0.0865
     35 C         144.1436  140.0675  161.3641 C.3     1  UNL1        0.1742
     36 O         145.0350  140.8175  162.3090 O.3     1  UNL1       -0.3496
@<TRIPOS>BOND
     1    35    36    1
     2    29    36    1
     3    29    30    1
     4    30    31    1
     5    31    32    1
     6    32    33    1
     7    33    34    1
     8    34    27    1
     9     1    27    1
    10     1     2    1
    11     2     3    1
    12     3     4    1
    13     4     6    1
    14     6     7    2
    15     6     8   am
    16     8     9    1
    17     9    10    1
    18    10    11    1
    19    11    14    1
    20    14    15   ar
    21    15    16   ar
    22    16    20    1
    23    20    21    1
    24    20    22    1
    25    20    23    1
    26    16    17   ar
    27    17    18   ar
    28    18    19   ar
    29    11    12    1
    30    12    13    1
    31     4    24    1
    32    24    25    1
    33    24    26    1
    34     4     5    1
    35    34    29    1
    36     5     1    1
    37    13     8    1
    38    19    14   ar
    39    27    28    1
@<TRIPOS>MOLECULE
*****
 36 39 0 0 0
SMALL
GASTEIGER

@<TRIPOS>ATOM
      1 C         139.8053  140.8803  159.6559 C.3     1  UNL1        0.0545
      2 C         138.8091  141.7978  159.0112 C.3     1  UNL1        0.0162
      3 C         139.2670  143.2088  159.2333 C.3     1  UNL1        0.0100
      4 C         140.5462  143.1634  160.0153 C.3     1  UNL1        0.0704
      5 C         140.8789  141.7243  160.2765 C.3     1  UNL1        0.0243
      6 C         141.8111  143.4304  160.7759 C.2     1  UNL1        0.2248
      7 O         143.0236  143.9446  160.0581 O.2     1  UNL1       -0.2749
      8 N         141.8635  143.1832  162.2545 N.am    1  UNL1       -0.2760
      9 C         143.1284  143.4501  163.0153 C.3     1  UNL1        0.1149
     10 C         143.1808  143.2029  164.4938 C.3     1  UNL1        0.1137
     11 N         141.9682  142.6886  165.2116 N.pl3   1  UNL1       -0.2883
     12 C         140.7033  142.4217  164.4509 C.3     1  UNL1        0.1137
     13 C         140.6510  142.6689  162.9723 C.3     1  UNL1        0.1149
     14 C         142.0206  142.4414  166.6902 C.ar    1  UNL1        0.1535
     15 C         140.8117  141.9154  167.4059 C.ar    1  UNL1        0.0416
     16 C         140.8641  141.6682  168.8844 C.ar    1  UNL1        0.0951
     17 C         142.1252  141.9468  169.6473 C.ar    1  UNL1        0.1261
     18 N         143.3340  142.4728  168.9316 N.ar    1  UNL1       -0.1453
     19 N         143.2816  142.7200  167.4531 N.ar    1  UNL1       -0.1329
     20 C         139.6553  141.1423  169.6002 C.3     1  UNL1        0.4202
     21 F         138.4465  140.6163  170.3159 F       1  UNL1       -0.1658
     22 F         139.8555  139.8033  168.9544 F       1  UNL1       -0.1658
     23 F         139.4551  142.4813  170.2459 F       1  UNL1       -0.1658
     24 C         140.4779  144.6583  159.9131 C.3     1  UNL1        0.0082
     25 C         140.5384  145.3218  158.5692 C.3     1  UNL1        0.0005
     26 C         140.3952  145.3855  160.5711 C.3     1  UNL1        0.0005
     27 N         139.7395  139.3818  159.6764 N.3     1  UNL1       -0.2975
     28 H         138.8405  139.1210  159.2713 H       1  UNL1        0.1232
     29 C         141.2014  138.1703  161.4499 C.3     1  UNL1        0.1591
     30 C         141.3209  137.4322  162.7502 C.3     1  UNL1        0.1729
     31 O         140.0980  137.1673  163.5774 O.3     1  UNL1       -0.3511
     32 C         138.7556  137.6406  163.1043 C.3     1  UNL1        0.1437
     33 C         138.6361  138.3788  161.8040 C.3     1  UNL1        0.0503
     34 C         139.8590  138.6436  160.9768 C.3     1  UNL1        0.0865
     35 C         143.7622  137.9346  161.0803 C.3     1  UNL1        0.1742
     36 O         142.4244  138.4352  160.6227 O.3     1  UNL1       -0.3496
@<TRIPOS>BOND
     1    35    36    1
     2    29    36    1
     3    29    30    1
     4    30    31    1
     5    31    32    1
     6    32    33    1
     7    33    34    1
     8    34    27    1
     9     1    27    1
    10     1     2    1
    11     2     3    1
    12     3     4    1
    13     4     6    1
    14     6     7    2
    15     6     8   am
    16     8     9    1
    17     9    10    1
    18    10    11    1
    19    11    14    1
    20    14    15   ar
    21    15    16   ar
    22    16    20    1
    23    20    21    1
    24    20    22    1
    25    20    23    1
    26    16    17   ar
    27    17    18   ar
    28    18    19   ar
    29    11    12    1
    30    12    13    1
    31     4    24    1
    32    24    25    1
    33    24    26    1
    34     4     5    1
    35    34    29    1
    36     5     1    1
    37    13     8    1
    38    19    14   ar
    39    27    28    1
