@<TRIPOS>MOLECULE
*****
 32 37 0 0 0
SMALL
GASTEIGER

@<TRIPOS>ATOM
      1 C         140.4393  139.1462  164.9740 C.ar    1  UNL1        0.0351
      2 C         140.8333  137.7039  164.8540 C.ar    1  UNL1        0.0030
      3 C         141.0777  137.1032  163.5015 C.ar    1  UNL1        0.0003
      4 C         140.9281  137.9449  162.2689 C.ar    1  UNL1        0.0063
      5 C         140.5342  139.3872  162.3888 C.ar    1  UNL1        0.0740
      6 C         140.3846  140.2288  161.1563 C.ar    1  UNL1        0.2641
      7 O         140.6290  139.6282  159.8037 O.2     1  UNL1       -0.2669
      8 N         139.9906  141.6712  161.2762 N.ar    1  UNL1       -0.2725
      9 C         139.7462  142.2719  162.6288 C.ar    1  UNL1        0.1999
     10 N         139.8957  141.4303  163.8614 N.ar    1  UNL1       -0.2150
     11 C         140.2897  139.9879  163.7414 C.ar    1  UNL1        0.0901
     12 C         141.4029  143.2136  169.6612 C.3     1  UNL1        0.0237
     13 C         140.4560  142.0634  169.4869 C.3     1  UNL1        0.0985
     14 N         139.4427  141.5960  170.4892 N.am    1  UNL1       -0.3004
     15 C         138.7166  140.4223  169.9015 C.2     1  UNL1        0.2438
     16 O         137.6187  139.6434  170.5631 O.2     1  UNL1       -0.2704
     17 C         139.2812  140.1644  168.5360 C.2     1  UNL1        0.0563
     18 C         139.1815  139.2796  167.3288 C.2     1  UNL1        0.0209
     19 C         140.1948  139.7470  166.3266 C.2     1  UNL1        0.0777
     20 N         140.9209  140.9207  166.9143 N.2     1  UNL1       -0.2660
     21 C         140.3563  141.1786  168.2798 C.3     1  UNL1        0.1476
     22 H         139.2822  141.9903  171.3769 H       1  UNL1        0.1498
     23 C         139.8411  142.5128  160.0436 C.3     1  UNL1        0.0738
     24 C         141.2380  143.0452  159.9206 C.3     1  UNL1        0.0228
     25 C         139.2064  143.1696  158.8538 C.3     1  UNL1        0.0228
     26 C         138.3922  142.2728  159.7385 C.3     1  UNL1        0.0228
     27 N         139.3522  143.7143  162.7487 N.pl3   1  UNL1       -0.3074
     28 H         139.1285  144.2322  161.9419 H       1  UNL1        0.1495
     29 C         139.2991  144.3676  164.0980 C.3     1  UNL1        0.0570
     30 C         140.7258  144.8122  164.2283 C.3     1  UNL1        0.0196
     31 C         138.7507  144.8664  165.4020 C.3     1  UNL1        0.0196
     32 C         137.8541  144.1497  164.4361 C.3     1  UNL1        0.0196
@<TRIPOS>BOND
     1    13    12    1
     2    13    14    1
     3    14    15   am
     4    15    16    2
     5    15    17    1
     6    17    18    2
     7    18    19    1
     8    19     1    1
     9     1     2   ar
    10     2     3   ar
    11     3     4   ar
    12     4     5   ar
    13     5     6   ar
    14     6     7    2
    15     6     8   ar
    16     8    23    1
    17    23    24    1
    18    23    25    1
    19    25    26    1
    20     8     9   ar
    21     9    27    1
    22    27    29    1
    23    29    30    1
    24    29    31    1
    25    31    32    1
    26     9    10   ar
    27    10    11   ar
    28    19    20    2
    29    20    21    1
    30    21    13    1
    31    21    17    1
    32    11     1   ar
    33    11     5   ar
    34    26    23    1
    35    32    29    1
    36    14    22    1
    37    27    28    1
@<TRIPOS>MOLECULE
*****
 32 37 0 0 0
SMALL
GASTEIGER

@<TRIPOS>ATOM
      1 C         140.0662  139.9049  166.5710 C.ar    1  UNL1        0.0351
      2 C         138.8528  139.0978  166.9260 C.ar    1  UNL1        0.0030
      3 C         138.2979  138.1071  165.9459 C.ar    1  UNL1        0.0003
      4 C         138.9565  137.9236  164.6108 C.ar    1  UNL1        0.0063
      5 C         140.1700  138.7307  164.2558 C.ar    1  UNL1        0.0740
      6 C         140.8286  138.5471  162.9206 C.ar    1  UNL1        0.2641
      7 O         140.2737  137.5565  161.9405 O.2     1  UNL1       -0.2669
      8 N         142.0420  139.3542  162.5656 N.ar    1  UNL1       -0.2725
      9 C         142.5969  140.3450  163.5458 C.ar    1  UNL1        0.1999
     10 N         141.9383  140.5285  164.8809 N.ar    1  UNL1       -0.2150
     11 C         140.7248  139.7213  165.2359 C.ar    1  UNL1        0.0901
     12 C         144.5177  142.4567  170.1924 C.3     1  UNL1        0.0237
     13 C         143.0800  142.8054  169.9446 C.3     1  UNL1        0.0985
     14 N         142.3291  143.9446  170.5676 N.am    1  UNL1       -0.3004
     15 C         140.9257  143.9193  170.0383 C.2     1  UNL1        0.2438
     16 O         139.8310  144.8802  170.3963 O.2     1  UNL1       -0.2704
     17 C         140.8094  142.7644  169.0883 C.2     1  UNL1        0.0563
     18 C         139.8702  142.0349  168.1741 C.2     1  UNL1        0.0209
     19 C         140.6211  140.8956  167.5511 C.2     1  UNL1        0.0777
     20 N         142.0245  140.9210  168.0804 N.2     1  UNL1       -0.2660
     21 C         142.1408  142.0759  169.0304 C.3     1  UNL1        0.1476
     22 H         142.6933  144.5949  171.2109 H       1  UNL1        0.1498
     23 C         142.7006  139.1707  161.2305 C.3     1  UNL1        0.0738
     24 C         141.9311  140.1717  160.4206 C.3     1  UNL1        0.0228
     25 C         143.6264  138.6395  160.1767 C.3     1  UNL1        0.0228
     26 C         143.6989  138.1059  161.5767 C.3     1  UNL1        0.0228
     27 N         143.8104  141.1521  163.1908 N.pl3   1  UNL1       -0.3074
     28 H         144.5857  140.7158  162.7692 H       1  UNL1        0.1495
     29 C         143.8425  142.6240  163.4781 C.3     1  UNL1        0.0570
     30 C         144.8128  142.6449  164.6218 C.3     1  UNL1        0.0196
     31 C         143.5378  144.0886  163.3682 C.3     1  UNL1        0.0196
     32 C         142.8835  143.1141  162.4340 C.3     1  UNL1        0.0196
@<TRIPOS>BOND
     1    13    12    1
     2    13    14    1
     3    14    15   am
     4    15    16    2
     5    15    17    1
     6    17    18    2
     7    18    19    1
     8    19     1    1
     9     1     2   ar
    10     2     3   ar
    11     3     4   ar
    12     4     5   ar
    13     5     6   ar
    14     6     7    2
    15     6     8   ar
    16     8    23    1
    17    23    24    1
    18    23    25    1
    19    25    26    1
    20     8     9   ar
    21     9    27    1
    22    27    29    1
    23    29    30    1
    24    29    31    1
    25    31    32    1
    26     9    10   ar
    27    10    11   ar
    28    19    20    2
    29    20    21    1
    30    21    13    1
    31    21    17    1
    32    11     1   ar
    33    11     5   ar
    34    26    23    1
    35    32    29    1
    36    14    22    1
    37    27    28    1
@<TRIPOS>MOLECULE
*****
 32 37 0 0 0
SMALL
GASTEIGER

@<TRIPOS>ATOM
      1 C         142.7916  142.4393  165.8570 C.ar    1  UNL1        0.0351
      2 C         144.0027  143.2931  165.6240 C.ar    1  UNL1        0.0030
      3 C         144.2537  143.8847  164.2686 C.ar    1  UNL1        0.0003
      4 C         143.2937  143.6224  163.1463 C.ar    1  UNL1        0.0063
      5 C         142.0826  142.7686  163.3793 C.ar    1  UNL1        0.0740
      6 C         141.1226  142.5064  162.2570 C.ar    1  UNL1        0.2641
      7 O         141.3736  143.0979  160.9017 O.2     1  UNL1       -0.2669
      8 N         139.9116  141.6525  162.4900 N.ar    1  UNL1       -0.2725
      9 C         139.6605  141.0609  163.8455 C.ar    1  UNL1        0.1999
     10 N         140.6205  141.3232  164.9678 N.ar    1  UNL1       -0.2150
     11 C         141.8316  142.1771  164.7347 C.ar    1  UNL1        0.0901
     12 C         143.0687  137.9762  170.2667 C.3     1  UNL1        0.0237
     13 C         142.4812  139.3562  170.2473 C.3     1  UNL1        0.0985
     14 N         141.7679  140.0269  171.3837 N.am    1  UNL1       -0.3004
     15 C         141.3498  141.3931  170.9268 C.2     1  UNL1        0.2438
     16 O         140.6071  142.4075  171.7450 O.2     1  UNL1       -0.2704
     17 C         141.8046  141.5668  169.5080 C.2     1  UNL1        0.0563
     18 C         141.8273  142.5184  168.3488 C.2     1  UNL1        0.0209
     19 C         142.5406  141.8477  167.2124 C.2     1  UNL1        0.0777
     20 N         142.9587  140.4816  167.6693 N.2     1  UNL1       -0.2660
     21 C         142.5039  140.3079  169.0881 C.3     1  UNL1        0.1476
     22 H         141.6032  139.6386  172.2733 H       1  UNL1        0.1498
     23 C         138.9516  141.3903  161.3677 C.3     1  UNL1        0.0738
     24 C         138.0011  142.5337  161.5654 C.3     1  UNL1        0.0228
     25 C         138.3217  140.7309  160.1768 C.3     1  UNL1        0.0228
     26 C         139.5686  140.1557  160.7803 C.3     1  UNL1        0.0228
     27 N         138.4495  140.2071  164.0785 N.pl3   1  UNL1       -0.3074
     28 H         137.5708  140.4968  163.7420 H       1  UNL1        0.1495
     29 C         138.5772  138.9118  164.8242 C.3     1  UNL1        0.0570
     30 C         138.0294  139.3244  166.1583 C.3     1  UNL1        0.0196
     31 C         138.8951  137.4734  165.1066 C.3     1  UNL1        0.0196
     32 C         139.1693  138.0497  163.7491 C.3     1  UNL1        0.0196
@<TRIPOS>BOND
     1    13    12    1
     2    13    14    1
     3    14    15   am
     4    15    16    2
     5    15    17    1
     6    17    18    2
     7    18    19    1
     8    19     1    1
     9     1     2   ar
    10     2     3   ar
    11     3     4   ar
    12     4     5   ar
    13     5     6   ar
    14     6     7    2
    15     6     8   ar
    16     8    23    1
    17    23    24    1
    18    23    25    1
    19    25    26    1
    20     8     9   ar
    21     9    27    1
    22    27    29    1
    23    29    30    1
    24    29    31    1
    25    31    32    1
    26     9    10   ar
    27    10    11   ar
    28    19    20    2
    29    20    21    1
    30    21    13    1
    31    21    17    1
    32    11     1   ar
    33    11     5   ar
    34    26    23    1
    35    32    29    1
    36    14    22    1
    37    27    28    1
@<TRIPOS>MOLECULE
*****
 32 37 0 0 0
SMALL
GASTEIGER

@<TRIPOS>ATOM
      1 C         142.9559  140.8817  165.2677 C.ar    1  UNL1        0.0351
      2 C         144.0204  139.8350  165.1227 C.ar    1  UNL1        0.0030
      3 C         144.5221  139.4592  163.7600 C.ar    1  UNL1        0.0003
      4 C         143.9593  140.1302  162.5422 C.ar    1  UNL1        0.0063
      5 C         142.8948  141.1770  162.6872 C.ar    1  UNL1        0.0740
      6 C         142.3320  141.8481  161.4694 C.ar    1  UNL1        0.2641
      7 O         142.8337  141.4723  160.1067 O.2     1  UNL1       -0.2669
      8 N         141.2676  142.8949  161.6144 N.ar    1  UNL1       -0.2725
      9 C         140.7658  143.2707  162.9771 C.ar    1  UNL1        0.1999
     10 N         141.3286  142.5996  164.1949 N.ar    1  UNL1       -0.2150
     11 C         142.3931  141.5528  164.0499 C.ar    1  UNL1        0.0901
     12 C         138.9520  140.7428  170.1041 C.3     1  UNL1        0.0237
     13 C         140.2405  141.4731  169.8670 C.3     1  UNL1        0.0985
     14 N         140.9098  142.4140  170.8245 N.am    1  UNL1       -0.3004
     15 C         142.1690  142.9131  170.1800 C.2     1  UNL1        0.2438
     16 O         143.1475  143.8757  170.7851 O.2     1  UNL1       -0.2704
     17 C         142.2779  142.2808  168.8242 C.2     1  UNL1        0.0563
     18 C         143.1234  142.1984  167.5879 C.2     1  UNL1        0.0209
     19 C         142.4542  141.2575  166.6305 C.2     1  UNL1        0.0777
     20 N         141.1950  140.7584  167.2750 N.2     1  UNL1       -0.2660
     21 C         141.0860  141.3908  168.6308 C.3     1  UNL1        0.1476
     22 H         140.5805  142.6606  171.7189 H       1  UNL1        0.1498
     23 C         140.7048  143.5659  160.3966 C.3     1  UNL1        0.0738
     24 C         141.5967  144.7699  160.3270 C.3     1  UNL1        0.0228
     25 C         139.8323  143.8188  159.2030 C.3     1  UNL1        0.0228
     26 C         139.6174  142.5950  160.0432 C.3     1  UNL1        0.0228
     27 N         139.7013  144.3174  163.1221 N.pl3   1  UNL1       -0.3074
     28 H         139.7923  145.1799  162.6561 H       1  UNL1        0.1495
     29 C         138.4981  144.0502  163.9771 C.3     1  UNL1        0.0570
     30 C         137.7490  143.1058  163.0845 C.3     1  UNL1        0.0196
     31 C         137.5551  144.1110  165.1420 C.3     1  UNL1        0.0196
     32 C         138.8295  144.9019  165.1665 C.3     1  UNL1        0.0196
@<TRIPOS>BOND
     1    13    12    1
     2    13    14    1
     3    14    15   am
     4    15    16    2
     5    15    17    1
     6    17    18    2
     7    18    19    1
     8    19     1    1
     9     1     2   ar
    10     2     3   ar
    11     3     4   ar
    12     4     5   ar
    13     5     6   ar
    14     6     7    2
    15     6     8   ar
    16     8    23    1
    17    23    24    1
    18    23    25    1
    19    25    26    1
    20     8     9   ar
    21     9    27    1
    22    27    29    1
    23    29    30    1
    24    29    31    1
    25    31    32    1
    26     9    10   ar
    27    10    11   ar
    28    19    20    2
    29    20    21    1
    30    21    13    1
    31    21    17    1
    32    11     1   ar
    33    11     5   ar
    34    26    23    1
    35    32    29    1
    36    14    22    1
    37    27    28    1
@<TRIPOS>MOLECULE
*****
 32 37 0 0 0
SMALL
GASTEIGER

@<TRIPOS>ATOM
      1 C         142.3050  140.3678  165.7799 C.ar    1  UNL1        0.0351
      2 C         143.3419  139.2909  165.9022 C.ar    1  UNL1        0.0030
      3 C         144.1106  138.8491  164.6923 C.ar    1  UNL1        0.0003
      4 C         143.8424  139.4842  163.3602 C.ar    1  UNL1        0.0063
      5 C         142.8055  140.5612  163.2378 C.ar    1  UNL1        0.0740
      6 C         142.5373  141.1963  161.9057 C.ar    1  UNL1        0.2641
      7 O         143.3060  140.7545  160.6958 O.2     1  UNL1       -0.2669
      8 N         141.5004  142.2732  161.7834 N.ar    1  UNL1       -0.2725
      9 C         140.7316  142.7151  162.9933 C.ar    1  UNL1        0.1999
     10 N         140.9998  142.0799  164.3254 N.ar    1  UNL1       -0.2150
     11 C         142.0368  141.0030  164.4477 C.ar    1  UNL1        0.0901
     12 C         140.4936  144.4365  170.2078 C.3     1  UNL1        0.0237
     13 C         140.1319  143.0085  169.9249 C.3     1  UNL1        0.0985
     14 N         139.1703  142.1697  170.7134 N.am    1  UNL1       -0.3004
     15 C         139.1124  140.8114  170.0796 C.2     1  UNL1        0.2438
     16 O         138.2756  139.6566  170.5443 O.2     1  UNL1       -0.2704
     17 C         140.0382  140.8108  168.8994 C.2     1  UNL1        0.0563
     18 C         140.5746  139.9709  167.7783 C.2     1  UNL1        0.0209
     19 C         141.5362  140.8097  166.9898 C.2     1  UNL1        0.0777
     20 N         141.5941  142.1680  167.6236 N.2     1  UNL1       -0.2660
     21 C         140.6683  142.1687  168.8038 C.3     1  UNL1        0.1476
     22 H         138.6657  142.4598  171.5075 H       1  UNL1        0.1498
     23 C         141.2322  142.9083  160.4512 C.3     1  UNL1        0.0738
     24 C         140.1520  142.0003  159.9425 C.3     1  UNL1        0.0228
     25 C         141.3392  143.8587  159.2957 C.3     1  UNL1        0.0228
     26 C         142.2193  144.0369  160.4972 C.3     1  UNL1        0.0228
     27 N         139.6947  143.7920  162.8710 N.pl3   1  UNL1       -0.3074
     28 H         139.7893  144.4906  162.1838 H       1  UNL1        0.1495
     29 C         138.5136  143.8045  163.7956 C.3     1  UNL1        0.0570
     30 C         137.6437  142.7859  163.1206 C.3     1  UNL1        0.0196
     31 C         137.6347  144.1706  164.9546 C.3     1  UNL1        0.0196
     32 C         138.9735  144.8273  164.7917 C.3     1  UNL1        0.0196
@<TRIPOS>BOND
     1    13    12    1
     2    13    14    1
     3    14    15   am
     4    15    16    2
     5    15    17    1
     6    17    18    2
     7    18    19    1
     8    19     1    1
     9     1     2   ar
    10     2     3   ar
    11     3     4   ar
    12     4     5   ar
    13     5     6   ar
    14     6     7    2
    15     6     8   ar
    16     8    23    1
    17    23    24    1
    18    23    25    1
    19    25    26    1
    20     8     9   ar
    21     9    27    1
    22    27    29    1
    23    29    30    1
    24    29    31    1
    25    31    32    1
    26     9    10   ar
    27    10    11   ar
    28    19    20    2
    29    20    21    1
    30    21    13    1
    31    21    17    1
    32    11     1   ar
    33    11     5   ar
    34    26    23    1
    35    32    29    1
    36    14    22    1
    37    27    28    1
@<TRIPOS>MOLECULE
*****
 32 37 0 0 0
SMALL
GASTEIGER

@<TRIPOS>ATOM
      1 C         142.8582  142.2023  165.4182 C.ar    1  UNL1        0.0351
      2 C         144.0608  143.0784  165.2277 C.ar    1  UNL1        0.0030
      3 C         144.3871  143.6186  163.8670 C.ar    1  UNL1        0.0003
      4 C         143.5109  143.2827  162.6967 C.ar    1  UNL1        0.0063
      5 C         142.3084  142.4066  162.8872 C.ar    1  UNL1        0.0740
      6 C         141.4322  142.0707  161.7170 C.ar    1  UNL1        0.2641
      7 O         141.7586  142.6109  160.3562 O.2     1  UNL1       -0.2669
      8 N         140.2297  141.1946  161.9075 N.ar    1  UNL1       -0.2725
      9 C         139.9033  140.6544  163.2683 C.ar    1  UNL1        0.1999
     10 N         140.7794  140.9903  164.4385 N.ar    1  UNL1       -0.2150
     11 C         141.9820  141.8664  164.2480 C.ar    1  UNL1        0.0901
     12 C         140.1859  142.3078  171.1006 C.3     1  UNL1        0.0237
     13 C         141.0607  141.3088  170.4029 C.3     1  UNL1        0.0985
     14 N         141.5271  139.9995  170.9670 N.am    1  UNL1       -0.3004
     15 C         142.3773  139.3253  169.9313 C.2     1  UNL1        0.2438
     16 O         143.0504  137.9924  170.0746 O.2     1  UNL1       -0.2704
     17 C         142.4364  140.2178  168.7272 C.2     1  UNL1        0.0563
     18 C         142.9983  140.3528  167.3430 C.2     1  UNL1        0.0209
     19 C         142.5318  141.6621  166.7790 C.2     1  UNL1        0.0777
     20 N         141.6816  142.3363  167.8146 N.2     1  UNL1       -0.2660
     21 C         141.6226  141.4438  169.0187 C.3     1  UNL1        0.1476
     22 H         141.3129  139.6450  171.8601 H       1  UNL1        0.1498
     23 C         139.3535  140.8587  160.7372 C.3     1  UNL1        0.0738
     24 C         140.0516  139.6304  160.2332 C.3     1  UNL1        0.0228
     25 C         138.2349  140.9494  159.7420 C.3     1  UNL1        0.0228
     26 C         138.3511  141.9703  160.8347 C.3     1  UNL1        0.0228
     27 N         138.7007  139.7783  163.4587 N.pl3   1  UNL1       -0.3074
     28 H         137.8353  140.0384  163.0680 H       1  UNL1        0.1495
     29 C         138.8167  138.5058  164.2446 C.3     1  UNL1        0.0570
     30 C         139.4159  137.6095  163.2017 C.3     1  UNL1        0.0196
     31 C         138.7246  137.5447  165.3925 C.3     1  UNL1        0.0196
     32 C         138.2577  138.9604  165.5602 C.3     1  UNL1        0.0196
@<TRIPOS>BOND
     1    13    12    1
     2    13    14    1
     3    14    15   am
     4    15    16    2
     5    15    17    1
     6    17    18    2
     7    18    19    1
     8    19     1    1
     9     1     2   ar
    10     2     3   ar
    11     3     4   ar
    12     4     5   ar
    13     5     6   ar
    14     6     7    2
    15     6     8   ar
    16     8    23    1
    17    23    24    1
    18    23    25    1
    19    25    26    1
    20     8     9   ar
    21     9    27    1
    22    27    29    1
    23    29    30    1
    24    29    31    1
    25    31    32    1
    26     9    10   ar
    27    10    11   ar
    28    19    20    2
    29    20    21    1
    30    21    13    1
    31    21    17    1
    32    11     1   ar
    33    11     5   ar
    34    26    23    1
    35    32    29    1
    36    14    22    1
    37    27    28    1
@<TRIPOS>MOLECULE
*****
 32 37 0 0 0
SMALL
GASTEIGER

@<TRIPOS>ATOM
      1 C         140.9021  139.1462  162.9384 C.ar    1  UNL1        0.0351
      2 C         141.7145  137.9508  162.5373 C.ar    1  UNL1        0.0030
      3 C         142.3418  137.8928  161.1760 C.ar    1  UNL1        0.0003
      4 C         142.1567  139.0302  160.2158 C.ar    1  UNL1        0.0063
      5 C         141.3443  140.2256  160.6169 C.ar    1  UNL1        0.0740
      6 C         141.1591  141.3631  159.6567 C.ar    1  UNL1        0.2641
      7 O         141.7864  141.3051  158.2954 O.2     1  UNL1       -0.2669
      8 N         140.3467  142.5585  160.0578 N.ar    1  UNL1       -0.2725
      9 C         139.7194  142.6165  161.4191 C.ar    1  UNL1        0.1999
     10 N         139.9045  141.4791  162.3793 N.ar    1  UNL1       -0.2150
     11 C         140.7170  140.2836  161.9782 C.ar    1  UNL1        0.0901
     12 C         140.4082  141.0288  168.9094 C.3     1  UNL1        0.0237
     13 C         139.5813  140.1127  168.0568 C.3     1  UNL1        0.0985
     14 N         138.3443  139.3829  168.4894 N.am    1  UNL1       -0.3004
     15 C         137.8447  138.5848  167.3217 C.2     1  UNL1        0.2438
     16 O         136.6302  137.7046  167.3103 O.2     1  UNL1       -0.2704
     17 C         138.7729  138.8214  166.1674 C.2     1  UNL1        0.0563
     18 C         139.0379  138.4744  164.7323 C.2     1  UNL1        0.0209
     19 C         140.2748  139.2042  164.2997 C.2     1  UNL1        0.0777
     20 N         140.7744  140.0023  165.4674 N.2     1  UNL1       -0.2660
     21 C         139.8462  139.7657  166.6217 C.3     1  UNL1        0.1476
     22 H         137.9326  139.4210  169.3829 H       1  UNL1        0.1498
     23 C         140.1616  143.6959  159.0976 C.3     1  UNL1        0.0738
     24 C         138.9496  143.2158  158.3555 C.3     1  UNL1        0.0228
     25 C         140.3973  145.0001  158.3952 C.3     1  UNL1        0.0228
     26 C         141.3092  144.5712  159.5062 C.3     1  UNL1        0.0228
     27 N         138.9070  143.8119  161.8202 N.pl3   1  UNL1       -0.3074
     28 H         138.2681  144.2086  161.1849 H       1  UNL1        0.1495
     29 C         139.0681  144.4031  163.1895 C.3     1  UNL1        0.0570
     30 C         140.4189  145.0381  163.0416 C.3     1  UNL1        0.0196
     31 C         138.7600  144.7738  164.6099 C.3     1  UNL1        0.0196
     32 C         137.7731  143.9734  163.8126 C.3     1  UNL1        0.0196
@<TRIPOS>BOND
     1    13    12    1
     2    13    14    1
     3    14    15   am
     4    15    16    2
     5    15    17    1
     6    17    18    2
     7    18    19    1
     8    19     1    1
     9     1     2   ar
    10     2     3   ar
    11     3     4   ar
    12     4     5   ar
    13     5     6   ar
    14     6     7    2
    15     6     8   ar
    16     8    23    1
    17    23    24    1
    18    23    25    1
    19    25    26    1
    20     8     9   ar
    21     9    27    1
    22    27    29    1
    23    29    30    1
    24    29    31    1
    25    31    32    1
    26     9    10   ar
    27    10    11   ar
    28    19    20    2
    29    20    21    1
    30    21    13    1
    31    21    17    1
    32    11     1   ar
    33    11     5   ar
    34    26    23    1
    35    32    29    1
    36    14    22    1
    37    27    28    1
@<TRIPOS>MOLECULE
*****
 32 37 0 0 0
SMALL
GASTEIGER

@<TRIPOS>ATOM
      1 C         142.9705  142.0400  165.5324 C.ar    1  UNL1        0.0351
      2 C         143.7502  143.3192  165.6064 C.ar    1  UNL1        0.0030
      3 C         144.2712  143.9537  164.3510 C.ar    1  UNL1        0.0003
      4 C         144.0125  143.3089  163.0216 C.ar    1  UNL1        0.0063
      5 C         143.2328  142.0297  162.9476 C.ar    1  UNL1        0.0740
      6 C         142.9740  141.3849  161.6182 C.ar    1  UNL1        0.2641
      7 O         143.4950  142.0193  160.3628 O.2     1  UNL1       -0.2669
      8 N         142.1943  140.1056  161.5442 N.ar    1  UNL1       -0.2725
      9 C         141.6733  139.4711  162.7996 C.ar    1  UNL1        0.1999
     10 N         141.9320  140.1159  164.1290 N.ar    1  UNL1       -0.2150
     11 C         142.7118  141.3952  164.2030 C.ar    1  UNL1        0.0901
     12 C         143.0377  137.9615  170.3077 C.3     1  UNL1        0.0237
     13 C         142.0929  139.0589  169.9164 C.3     1  UNL1        0.0985
     14 N         140.8460  139.4526  170.6514 N.am    1  UNL1       -0.3004
     15 C         140.2116  140.5923  169.9106 C.2     1  UNL1        0.2438
     16 O         138.9448  141.2975  170.2951 O.2     1  UNL1       -0.2704
     17 C         141.0664  140.9029  168.7178 C.2     1  UNL1        0.0563
     18 C         141.2026  141.7992  167.5228 C.2     1  UNL1        0.0209
     19 C         142.4494  141.4055  166.7878 C.2     1  UNL1        0.0777
     20 N         143.0839  140.2658  167.5285 N.2     1  UNL1       -0.2660
     21 C         142.2291  139.9552  168.7214 C.3     1  UNL1        0.1476
     22 H         140.5040  139.0362  171.4753 H       1  UNL1        0.1498
     23 C         141.9356  139.4609  160.2148 C.3     1  UNL1        0.0738
     24 C         140.6342  140.1153  159.8567 C.3     1  UNL1        0.0228
     25 C         142.1288  138.5888  159.0097 C.3     1  UNL1        0.0228
     26 C         143.1470  138.5825  160.1111 C.3     1  UNL1        0.0228
     27 N         140.8935  138.1919  162.7255 N.pl3   1  UNL1       -0.3074
     28 H         141.1579  137.4905  162.0872 H       1  UNL1        0.1495
     29 C         139.7110  137.9812  163.6241 C.3     1  UNL1        0.0570
     30 C         138.6356  138.6147  162.7920 C.3     1  UNL1        0.0196
     31 C         138.9019  137.5506  164.8115 C.3     1  UNL1        0.0196
     32 C         140.3757  137.2746  164.7680 C.3     1  UNL1        0.0196
@<TRIPOS>BOND
     1    13    12    1
     2    13    14    1
     3    14    15   am
     4    15    16    2
     5    15    17    1
     6    17    18    2
     7    18    19    1
     8    19     1    1
     9     1     2   ar
    10     2     3   ar
    11     3     4   ar
    12     4     5   ar
    13     5     6   ar
    14     6     7    2
    15     6     8   ar
    16     8    23    1
    17    23    24    1
    18    23    25    1
    19    25    26    1
    20     8     9   ar
    21     9    27    1
    22    27    29    1
    23    29    30    1
    24    29    31    1
    25    31    32    1
    26     9    10   ar
    27    10    11   ar
    28    19    20    2
    29    20    21    1
    30    21    13    1
    31    21    17    1
    32    11     1   ar
    33    11     5   ar
    34    26    23    1
    35    32    29    1
    36    14    22    1
    37    27    28    1
@<TRIPOS>MOLECULE
*****
 32 37 0 0 0
SMALL
GASTEIGER

@<TRIPOS>ATOM
      1 C         139.7739  142.6804  165.5948 C.ar    1  UNL1        0.0351
      2 C         139.3001  144.0598  165.9452 C.ar    1  UNL1        0.0030
      3 C         138.5434  144.8717  164.9362 C.ar    1  UNL1        0.0003
      4 C         138.2603  144.3042  163.5768 C.ar    1  UNL1        0.0063
      5 C         138.7341  142.9248  163.2264 C.ar    1  UNL1        0.0740
      6 C         138.4510  142.3574  161.8671 C.ar    1  UNL1        0.2641
      7 O         137.6943  143.1693  160.8581 O.2     1  UNL1       -0.2669
      8 N         138.9248  140.9780  161.5167 N.ar    1  UNL1       -0.2725
      9 C         139.6816  140.1660  162.5257 C.ar    1  UNL1        0.1999
     10 N         139.9646  140.7335  163.8850 N.ar    1  UNL1       -0.2150
     11 C         139.4908  142.1129  164.2354 C.ar    1  UNL1        0.0901
     12 C         141.5900  141.0295  171.3756 C.3     1  UNL1        0.0237
     13 C         141.9283  140.5057  170.0113 C.3     1  UNL1        0.0985
     14 N         142.8598  139.3695  169.7091 N.am    1  UNL1       -0.3004
     15 C         142.9016  139.1878  168.2207 C.2     1  UNL1        0.2438
     16 O         143.7076  138.1623  167.4800 O.2     1  UNL1       -0.2704
     17 C         141.9960  140.2117  167.6031 C.2     1  UNL1        0.0563
     18 C         141.4622  140.7322  166.3015 C.2     1  UNL1        0.0209
     19 C         140.5307  141.8684  166.6038 C.2     1  UNL1        0.0777
     20 N         140.4888  142.0501  168.0921 N.2     1  UNL1       -0.2660
     21 C         141.3945  141.0262  168.7098 C.3     1  UNL1        0.1476
     22 H         143.3565  138.8366  170.3713 H       1  UNL1        0.1498
     23 C         138.6417  140.4105  160.1573 C.3     1  UNL1        0.0738
     24 C         137.3482  139.7035  160.4344 C.3     1  UNL1        0.0228
     25 C         138.8079  140.0886  158.7018 C.3     1  UNL1        0.0228
     26 C         139.8370  140.9204  159.4081 C.3     1  UNL1        0.0228
     27 N         140.1553  138.7866  162.1753 N.pl3   1  UNL1       -0.3074
     28 H         140.3350  138.5516  161.2363 H       1  UNL1        0.1495
     29 C         140.3553  137.7653  163.2556 C.3     1  UNL1        0.0570
     30 C         138.9272  137.4099  163.5455 C.3     1  UNL1        0.0196
     31 C         141.0512  136.8674  164.2351 C.3     1  UNL1        0.0196
     32 C         141.8529  137.7660  163.3406 C.3     1  UNL1        0.0196
@<TRIPOS>BOND
     1    13    12    1
     2    13    14    1
     3    14    15   am
     4    15    16    2
     5    15    17    1
     6    17    18    2
     7    18    19    1
     8    19     1    1
     9     1     2   ar
    10     2     3   ar
    11     3     4   ar
    12     4     5   ar
    13     5     6   ar
    14     6     7    2
    15     6     8   ar
    16     8    23    1
    17    23    24    1
    18    23    25    1
    19    25    26    1
    20     8     9   ar
    21     9    27    1
    22    27    29    1
    23    29    30    1
    24    29    31    1
    25    31    32    1
    26     9    10   ar
    27    10    11   ar
    28    19    20    2
    29    20    21    1
    30    21    13    1
    31    21    17    1
    32    11     1   ar
    33    11     5   ar
    34    26    23    1
    35    32    29    1
    36    14    22    1
    37    27    28    1
