@<TRIPOS>MOLECULE
*****
 31 34 0 0 0
SMALL
GASTEIGER

@<TRIPOS>ATOM
      1 C         144.0886  142.2138  165.1486 C.3     1  UNL1        0.0723
      2 C         142.9106  141.6164  165.8598 C.ar    1  UNL1        0.1268
      3 N         142.5564  142.0775  167.2424 N.ar    1  UNL1       -0.2319
      4 C         141.3785  141.4802  167.9536 C.ar    1  UNL1        0.0910
      5 C         141.0243  141.9413  169.3363 C.ar    1  UNL1        0.0892
      6 C         139.8464  141.3440  170.0473 C.ar    1  UNL1        0.0054
      7 C         139.0226  140.2855  169.3757 C.ar    1  UNL1        0.0002
      8 C         139.3768  139.8244  167.9930 C.ar    1  UNL1        0.0063
      9 C         140.5547  140.4217  167.2820 C.ar    1  UNL1        0.0741
     10 C         140.9089  139.9606  165.8992 C.ar    1  UNL1        0.2669
     11 O         140.0852  138.9022  165.2276 O.2     1  UNL1       -0.2665
     12 N         142.0868  140.5580  165.1881 N.ar    1  UNL1       -0.2626
     13 C         142.4411  140.0968  163.8053 C.ar    1  UNL1        0.0681
     14 C         143.3472  138.9163  163.6176 C.ar    1  UNL1        0.0208
     15 C         143.7014  138.4552  162.2349 C.ar    1  UNL1        0.0384
     16 C         143.1495  139.1746  161.0400 C.ar    1  UNL1        0.1386
     17 C         142.2434  140.3551  161.2278 C.ar    1  UNL1        0.0384
     18 C         141.8892  140.8163  162.6105 C.ar    1  UNL1        0.0208
     19 O         143.5037  138.7135  159.6572 O.3     1  UNL1       -0.4754
     20 C         142.4911  137.9795  158.8290 C.3     1  UNL1        0.2068
     21 C         141.3604  138.7290  158.1889 C.3     1  UNL1        0.0646
     22 C         139.9419  138.3318  158.4719 C.3     1  UNL1        0.0759
     23 N         139.2654  138.8073  159.7234 N.3     1  UNL1       -0.2726
     24 C         139.2877  138.1165  161.0548 C.3     1  UNL1        0.0721
     25 C         138.4838  138.9393  162.0174 C.3     1  UNL1        0.0188
     26 C         137.9646  140.1387  161.2811 C.3     1  UNL1        0.0188
     27 C         138.4477  140.0571  159.8633 C.3     1  UNL1        0.0721
     28 C         141.8481  142.9998  170.0079 C.3     1  UNL1        0.4200
     29 F         142.6718  144.0582  170.6795 F       1  UNL1       -0.1658
     30 F         140.8482  144.0393  169.5959 F       1  UNL1       -0.1658
     31 F         142.8479  141.9603  170.4199 F       1  UNL1       -0.1658
@<TRIPOS>BOND
     1     1     2    1
     2     2     3   ar
     3     3     4   ar
     4     4     5   ar
     5     5    28    1
     6    28    29    1
     7    28    30    1
     8    28    31    1
     9     5     6   ar
    10     6     7   ar
    11     7     8   ar
    12     8     9   ar
    13     9    10   ar
    14    10    11    2
    15    10    12   ar
    16    12    13    1
    17    13    14   ar
    18    14    15   ar
    19    15    16   ar
    20    16    19    1
    21    19    20    1
    22    20    21    1
    23    21    22    1
    24    22    23    1
    25    23    24    1
    26    24    25    1
    27    25    26    1
    28    26    27    1
    29    16    17   ar
    30    17    18   ar
    31    12     2   ar
    32    18    13   ar
    33     9     4   ar
    34    27    23    1
@<TRIPOS>MOLECULE
*****
 31 34 0 0 0
SMALL
GASTEIGER

@<TRIPOS>ATOM
      1 C         139.5737  141.5890  164.5359 C.3     1  UNL1        0.0723
      2 C         140.5687  141.7914  165.6401 C.ar    1  UNL1        0.1268
      3 N         140.1828  141.5004  167.0601 N.ar    1  UNL1       -0.2319
      4 C         141.1777  141.7028  168.1643 C.ar    1  UNL1        0.0910
      5 C         140.7919  141.4117  169.5842 C.ar    1  UNL1        0.0892
      6 C         141.7868  141.6142  170.6883 C.ar    1  UNL1        0.0054
      7 C         143.1676  142.1076  170.3724 C.ar    1  UNL1        0.0002
      8 C         143.5535  142.3987  168.9525 C.ar    1  UNL1        0.0063
      9 C         142.5586  142.1963  167.8484 C.ar    1  UNL1        0.0741
     10 C         142.9444  142.4873  166.4283 C.ar    1  UNL1        0.2669
     11 O         144.3253  142.9808  166.1125 O.2     1  UNL1       -0.2665
     12 N         141.9495  142.2849  165.3243 N.ar    1  UNL1       -0.2626
     13 C         142.3354  142.5760  163.9042 C.ar    1  UNL1        0.0681
     14 C         142.4983  143.9953  163.4472 C.ar    1  UNL1        0.0208
     15 C         142.8842  144.2864  162.0272 C.ar    1  UNL1        0.0384
     16 C         143.1070  143.1581  161.0643 C.ar    1  UNL1        0.1386
     17 C         142.9440  141.7388  161.5213 C.ar    1  UNL1        0.0384
     18 C         142.5582  141.4477  162.9413 C.ar    1  UNL1        0.0208
     19 O         143.4929  143.4492  159.6442 O.3     1  UNL1       -0.4754
     20 C         142.4416  143.8305  158.6445 C.3     1  UNL1        0.2068
     21 C         141.1695  143.0408  158.5557 C.3     1  UNL1        0.0646
     22 C         139.8601  143.6868  158.8997 C.3     1  UNL1        0.0759
     23 N         139.6889  144.3783  160.2197 N.3     1  UNL1       -0.2726
     24 C         139.9788  145.8226  160.5025 C.3     1  UNL1        0.0721
     25 C         139.6667  146.0840  161.9463 C.3     1  UNL1        0.0188
     26 C         139.1839  144.8012  162.5557 C.3     1  UNL1        0.0188
     27 C         139.1976  143.7470  161.4886 C.3     1  UNL1        0.0721
     28 C         139.4110  140.9183  169.9001 C.3     1  UNL1        0.4200
     29 F         138.0302  140.4248  170.2160 F       1  UNL1       -0.1658
     30 F         139.7790  139.5585  169.3846 F       1  UNL1       -0.1658
     31 F         139.0430  142.2780  170.4156 F       1  UNL1       -0.1658
@<TRIPOS>BOND
     1     1     2    1
     2     2     3   ar
     3     3     4   ar
     4     4     5   ar
     5     5    28    1
     6    28    29    1
     7    28    30    1
     8    28    31    1
     9     5     6   ar
    10     6     7   ar
    11     7     8   ar
    12     8     9   ar
    13     9    10   ar
    14    10    11    2
    15    10    12   ar
    16    12    13    1
    17    13    14   ar
    18    14    15   ar
    19    15    16   ar
    20    16    19    1
    21    19    20    1
    22    20    21    1
    23    21    22    1
    24    22    23    1
    25    23    24    1
    26    24    25    1
    27    25    26    1
    28    26    27    1
    29    16    17   ar
    30    17    18   ar
    31    12     2   ar
    32    18    13   ar
    33     9     4   ar
    34    27    23    1
@<TRIPOS>MOLECULE
*****
 31 34 0 0 0
SMALL
GASTEIGER

@<TRIPOS>ATOM
      1 C         143.0753  140.8842  164.6650 C.3     1  UNL1        0.0723
      2 C         142.0914  140.7073  165.7834 C.ar    1  UNL1        0.1268
      3 N         142.4377  141.1708  167.1673 N.ar    1  UNL1       -0.2319
      4 C         141.4537  140.9939  168.2857 C.ar    1  UNL1        0.0910
      5 C         141.8000  141.4573  169.6696 C.ar    1  UNL1        0.0892
      6 C         140.8160  141.2804  170.7878 C.ar    1  UNL1        0.0054
      7 C         139.4859  140.6401  170.5222 C.ar    1  UNL1        0.0002
      8 C         139.1396  140.1767  169.1383 C.ar    1  UNL1        0.0063
      9 C         140.1235  140.3536  168.0200 C.ar    1  UNL1        0.0741
     10 C         139.7773  139.8901  166.6360 C.ar    1  UNL1        0.2669
     11 O         138.4471  139.2498  166.3703 O.2     1  UNL1       -0.2665
     12 N         140.7612  140.0670  165.5177 N.ar    1  UNL1       -0.2626
     13 C         140.4150  139.6036  164.1337 C.ar    1  UNL1        0.0681
     14 C         139.9032  140.5842  163.1205 C.ar    1  UNL1        0.0208
     15 C         139.5570  140.1208  161.7366 C.ar    1  UNL1        0.0384
     16 C         139.7225  138.6768  161.3658 C.ar    1  UNL1        0.1386
     17 C         140.2342  137.6962  162.3790 C.ar    1  UNL1        0.0384
     18 C         140.5804  138.1596  163.7629 C.ar    1  UNL1        0.0208
     19 O         139.3762  138.2134  159.9818 O.3     1  UNL1       -0.4754
     20 C         139.3614  139.1919  158.8450 C.3     1  UNL1        0.2068
     21 C         140.5530  139.3101  157.9416 C.3     1  UNL1        0.0646
     22 C         141.7474  138.4285  158.1564 C.3     1  UNL1        0.0759
     23 N         142.5730  138.5739  159.4002 N.3     1  UNL1       -0.2726
     24 C         143.0073  139.8672  160.0240 C.3     1  UNL1        0.0721
     25 C         143.8120  139.5442  161.2480 C.3     1  UNL1        0.0188
     26 C         143.8751  138.0514  161.3807 C.3     1  UNL1        0.0188
     27 C         143.1094  137.4517  160.2387 C.3     1  UNL1        0.0721
     28 C         143.1302  142.0976  169.9352 C.3     1  UNL1        0.4200
     29 F         144.4603  142.7380  170.2009 F       1  UNL1       -0.1658
     30 F         143.7485  140.7419  170.1068 F       1  UNL1       -0.1658
     31 F         142.5118  143.4534  169.7637 F       1  UNL1       -0.1658
@<TRIPOS>BOND
     1     1     2    1
     2     2     3   ar
     3     3     4   ar
     4     4     5   ar
     5     5    28    1
     6    28    29    1
     7    28    30    1
     8    28    31    1
     9     5     6   ar
    10     6     7   ar
    11     7     8   ar
    12     8     9   ar
    13     9    10   ar
    14    10    11    2
    15    10    12   ar
    16    12    13    1
    17    13    14   ar
    18    14    15   ar
    19    15    16   ar
    20    16    19    1
    21    19    20    1
    22    20    21    1
    23    21    22    1
    24    22    23    1
    25    23    24    1
    26    24    25    1
    27    25    26    1
    28    26    27    1
    29    16    17   ar
    30    17    18   ar
    31    12     2   ar
    32    18    13   ar
    33     9     4   ar
    34    27    23    1
@<TRIPOS>MOLECULE
*****
 31 34 0 0 0
SMALL
GASTEIGER

@<TRIPOS>ATOM
      1 C         144.3622  142.4468  165.1360 C.3     1  UNL1        0.0723
      2 C         143.1716  141.8080  165.7877 C.ar    1  UNL1        0.1268
      3 N         142.7833  142.1951  167.1839 N.ar    1  UNL1       -0.2319
      4 C         141.5927  141.5563  167.8356 C.ar    1  UNL1        0.0910
      5 C         141.2044  141.9434  169.2318 C.ar    1  UNL1        0.0892
      6 C         140.0139  141.3046  169.8834 C.ar    1  UNL1        0.0054
      7 C         139.2118  140.2788  169.1390 C.ar    1  UNL1        0.0002
      8 C         139.6002  139.8917  167.7428 C.ar    1  UNL1        0.0063
      9 C         140.7906  140.5304  167.0911 C.ar    1  UNL1        0.0741
     10 C         141.1791  140.1434  165.6949 C.ar    1  UNL1        0.2669
     11 O         140.3770  139.1175  164.9504 O.2     1  UNL1       -0.2665
     12 N         142.3695  140.7821  165.0432 N.ar    1  UNL1       -0.2626
     13 C         142.7580  140.3951  163.6470 C.ar    1  UNL1        0.0681
     14 C         143.6939  139.2450  163.4205 C.ar    1  UNL1        0.0208
     15 C         144.0823  138.8579  162.0244 C.ar    1  UNL1        0.0384
     16 C         143.5348  139.6209  160.8547 C.ar    1  UNL1        0.1386
     17 C         142.5989  140.7710  161.0813 C.ar    1  UNL1        0.0384
     18 C         142.2104  141.1580  162.4774 C.ar    1  UNL1        0.0208
     19 O         143.9232  139.2338  159.4585 O.3     1  UNL1       -0.4754
     20 C         142.8835  138.7251  158.5046 C.3     1  UNL1        0.2068
     21 C         142.6535  137.2496  158.3628 C.3     1  UNL1        0.0646
     22 C         142.6970  136.6106  157.0064 C.3     1  UNL1        0.0759
     23 N         143.2150  135.2114  156.8528 N.3     1  UNL1       -0.2726
     24 C         143.4711  134.5034  155.5554 C.3     1  UNL1        0.0721
     25 C         143.9822  133.1288  155.8703 C.3     1  UNL1        0.0188
     26 C         144.0420  132.9871  157.3625 C.3     1  UNL1        0.0188
     27 C         143.5678  134.2742  157.9697 C.3     1  UNL1        0.0721
     28 C         142.0065  142.9692  169.9763 C.3     1  UNL1        0.4200
     29 F         142.8086  143.9951  170.7208 F       1  UNL1       -0.1658
     30 F         143.0325  141.9264  170.3078 F       1  UNL1       -0.1658
     31 F         140.9805  144.0120  169.6447 F       1  UNL1       -0.1658
@<TRIPOS>BOND
     1     1     2    1
     2     2     3   ar
     3     3     4   ar
     4     4     5   ar
     5     5    28    1
     6    28    29    1
     7    28    30    1
     8    28    31    1
     9     5     6   ar
    10     6     7   ar
    11     7     8   ar
    12     8     9   ar
    13     9    10   ar
    14    10    11    2
    15    10    12   ar
    16    12    13    1
    17    13    14   ar
    18    14    15   ar
    19    15    16   ar
    20    16    19    1
    21    19    20    1
    22    20    21    1
    23    21    22    1
    24    22    23    1
    25    23    24    1
    26    24    25    1
    27    25    26    1
    28    26    27    1
    29    16    17   ar
    30    17    18   ar
    31    12     2   ar
    32    18    13   ar
    33     9     4   ar
    34    27    23    1
@<TRIPOS>MOLECULE
*****
 31 34 0 0 0
SMALL
GASTEIGER

@<TRIPOS>ATOM
      1 C         144.0310  142.3726  165.1367 C.3     1  UNL1        0.0723
      2 C         142.8762  141.7402  165.8554 C.ar    1  UNL1        0.1268
      3 N         142.5142  142.1941  167.2385 N.ar    1  UNL1       -0.2319
      4 C         141.3594  141.5616  167.9572 C.ar    1  UNL1        0.0910
      5 C         140.9974  142.0155  169.3403 C.ar    1  UNL1        0.0892
      6 C         139.8426  141.3831  170.0589 C.ar    1  UNL1        0.0054
      7 C         139.0498  140.2968  169.3945 C.ar    1  UNL1        0.0002
      8 C         139.4118  139.8430  168.0114 C.ar    1  UNL1        0.0063
      9 C         140.5665  140.4754  167.2928 C.ar    1  UNL1        0.0741
     10 C         140.9286  140.0215  165.9096 C.ar    1  UNL1        0.2669
     11 O         140.1358  138.9353  165.2452 O.2     1  UNL1       -0.2665
     12 N         142.0834  140.6539  165.1910 N.ar    1  UNL1       -0.2626
     13 C         142.4454  140.2001  163.8078 C.ar    1  UNL1        0.0681
     14 C         141.5751  140.5728  162.6444 C.ar    1  UNL1        0.0208
     15 C         141.9370  140.1190  161.2613 C.ar    1  UNL1        0.0384
     16 C         143.1693  139.2925  161.0416 C.ar    1  UNL1        0.1386
     17 C         144.0396  138.9197  162.2051 C.ar    1  UNL1        0.0384
     18 C         143.6777  139.3735  163.5882 C.ar    1  UNL1        0.0208
     19 O         143.5313  138.8386  159.6585 O.3     1  UNL1       -0.4754
     20 C         143.3583  139.7689  158.4946 C.3     1  UNL1        0.2068
     21 C         144.3878  140.8243  158.2185 C.3     1  UNL1        0.0646
     22 C         144.0038  142.2739  158.2531 C.3     1  UNL1        0.0759
     23 N         143.5264  142.8930  159.5333 N.3     1  UNL1       -0.2726
     24 C         142.2101  143.5812  159.7428 C.3     1  UNL1        0.0721
     25 C         142.1517  144.0461  161.1677 C.3     1  UNL1        0.0188
     26 C         143.4318  143.6452  161.8390 C.3     1  UNL1        0.0188
     27 C         144.2815  142.9325  160.8288 C.3     1  UNL1        0.0721
     28 C         141.7902  143.1018  170.0047 C.3     1  UNL1        0.4200
     29 F         142.5830  144.1880  170.6691 F       1  UNL1       -0.1658
     30 F         142.8225  142.0952  170.4186 F       1  UNL1       -0.1658
     31 F         140.7580  144.1083  169.5908 F       1  UNL1       -0.1658
@<TRIPOS>BOND
     1     1     2    1
     2     2     3   ar
     3     3     4   ar
     4     4     5   ar
     5     5    28    1
     6    28    29    1
     7    28    30    1
     8    28    31    1
     9     5     6   ar
    10     6     7   ar
    11     7     8   ar
    12     8     9   ar
    13     9    10   ar
    14    10    11    2
    15    10    12   ar
    16    12    13    1
    17    13    14   ar
    18    14    15   ar
    19    15    16   ar
    20    16    19    1
    21    19    20    1
    22    20    21    1
    23    21    22    1
    24    22    23    1
    25    23    24    1
    26    24    25    1
    27    25    26    1
    28    26    27    1
    29    16    17   ar
    30    17    18   ar
    31    12     2   ar
    32    18    13   ar
    33     9     4   ar
    34    27    23    1
@<TRIPOS>MOLECULE
*****
 31 34 0 0 0
SMALL
GASTEIGER

@<TRIPOS>ATOM
      1 C         144.0013  138.8059  165.4023 C.3     1  UNL1        0.0723
      2 C         142.7638  139.1649  166.1703 C.ar    1  UNL1        0.1268
      3 N         142.8072  139.2454  167.6675 N.ar    1  UNL1       -0.2319
      4 C         141.5697  139.6044  168.4355 C.ar    1  UNL1        0.0910
      5 C         141.6131  139.6849  169.9327 C.ar    1  UNL1        0.0892
      6 C         140.3757  140.0439  170.7007 C.ar    1  UNL1        0.0054
      7 C         139.0948  140.3225  169.9714 C.ar    1  UNL1        0.0002
      8 C         139.0514  140.2420  168.4742 C.ar    1  UNL1        0.0063
      9 C         140.2889  139.8830  167.7063 C.ar    1  UNL1        0.0741
     10 C         140.2455  139.8025  166.2090 C.ar    1  UNL1        0.2669
     11 O         138.9646  140.0810  165.4798 O.2     1  UNL1       -0.2665
     12 N         141.4829  139.4435  165.4411 N.ar    1  UNL1       -0.2626
     13 C         141.4396  139.3630  163.9438 C.ar    1  UNL1        0.0681
     14 C         141.8526  140.5444  163.1170 C.ar    1  UNL1        0.0208
     15 C         141.8092  140.4640  161.6198 C.ar    1  UNL1        0.0384
     16 C         141.3529  139.2021  160.9495 C.ar    1  UNL1        0.1386
     17 C         140.9398  138.0207  161.7763 C.ar    1  UNL1        0.0384
     18 C         140.9832  138.1011  163.2735 C.ar    1  UNL1        0.0208
     19 O         141.3095  139.1217  159.4522 O.3     1  UNL1       -0.4754
     20 C         140.0821  138.6016  158.7644 C.3     1  UNL1        0.2068
     21 C         139.2796  139.5062  157.8770 C.3     1  UNL1        0.0646
     22 C         138.1721  140.3356  158.4563 C.3     1  UNL1        0.0759
     23 N         138.1065  140.5707  159.9363 N.3     1  UNL1       -0.2726
     24 C         138.5271  141.8213  160.6499 C.3     1  UNL1        0.0721
     25 C         138.2894  141.6201  162.1172 C.3     1  UNL1        0.0188
     26 C         137.7218  140.2450  162.3105 C.3     1  UNL1        0.0188
     27 C         137.6088  139.5965  160.9626 C.3     1  UNL1        0.0721
     28 C         142.8940  139.4064  170.6620 C.3     1  UNL1        0.4200
     29 F         144.1749  139.1278  171.3912 F       1  UNL1       -0.1658
     30 F         143.1679  140.8789  170.7434 F       1  UNL1       -0.1658
     31 F         142.6202  137.9338  170.5805 F       1  UNL1       -0.1658
@<TRIPOS>BOND
     1     1     2    1
     2     2     3   ar
     3     3     4   ar
     4     4     5   ar
     5     5    28    1
     6    28    29    1
     7    28    30    1
     8    28    31    1
     9     5     6   ar
    10     6     7   ar
    11     7     8   ar
    12     8     9   ar
    13     9    10   ar
    14    10    11    2
    15    10    12   ar
    16    12    13    1
    17    13    14   ar
    18    14    15   ar
    19    15    16   ar
    20    16    19    1
    21    19    20    1
    22    20    21    1
    23    21    22    1
    24    22    23    1
    25    23    24    1
    26    24    25    1
    27    25    26    1
    28    26    27    1
    29    16    17   ar
    30    17    18   ar
    31    12     2   ar
    32    18    13   ar
    33     9     4   ar
    34    27    23    1
@<TRIPOS>MOLECULE
*****
 31 34 0 0 0
SMALL
GASTEIGER

@<TRIPOS>ATOM
      1 C         138.7173  142.1537  164.9341 C.3     1  UNL1        0.0723
      2 C         139.6812  141.4173  165.8165 C.ar    1  UNL1        0.1268
      3 N         139.9121  141.8792  167.2247 N.ar    1  UNL1       -0.2319
      4 C         140.8761  141.1428  168.1071 C.ar    1  UNL1        0.0910
      5 C         141.1070  141.6047  169.5154 C.ar    1  UNL1        0.0892
      6 C         142.0709  140.8683  170.3977 C.ar    1  UNL1        0.0054
      7 C         142.8039  139.6700  169.8717 C.ar    1  UNL1        0.0002
      8 C         142.5730  139.2080  168.4634 C.ar    1  UNL1        0.0063
      9 C         141.6091  139.9445  167.5811 C.ar    1  UNL1        0.0741
     10 C         141.3782  139.4825  166.1728 C.ar    1  UNL1        0.2669
     11 O         142.1112  138.2842  165.6468 O.2     1  UNL1       -0.2665
     12 N         140.4143  140.2189  165.2905 N.ar    1  UNL1       -0.2626
     13 C         140.1833  139.7570  163.8821 C.ar    1  UNL1        0.0681
     14 C         140.6427  140.6018  162.7309 C.ar    1  UNL1        0.0208
     15 C         140.4118  140.1399  161.3226 C.ar    1  UNL1        0.0384
     16 C         139.7215  138.8333  161.0656 C.ar    1  UNL1        0.1386
     17 C         139.2621  137.9885  162.2168 C.ar    1  UNL1        0.0384
     18 C         139.4930  138.4504  163.6251 C.ar    1  UNL1        0.0208
     19 O         139.4905  138.3714  159.6572 O.3     1  UNL1       -0.4754
     20 C         140.4711  138.7297  158.5801 C.3     1  UNL1        0.2068
     21 C         141.8126  138.0602  158.5342 C.3     1  UNL1        0.0646
     22 C         143.0534  138.8452  158.8413 C.3     1  UNL1        0.0759
     23 N         143.4774  139.0510  160.2652 N.3     1  UNL1       -0.2726
     24 C         143.4349  138.0216  161.3555 C.3     1  UNL1        0.0721
     25 C         143.9496  138.6567  162.6131 C.3     1  UNL1        0.0188
     26 C         144.3104  140.0787  162.3002 C.3     1  UNL1        0.0188
     27 C         144.0185  140.3224  160.8491 C.3     1  UNL1        0.0721
     28 C         140.3740  142.8031  170.0413 C.3     1  UNL1        0.4200
     29 F         139.6410  144.0015  170.5673 F       1  UNL1       -0.1658
     30 F         139.1724  141.9480  170.3150 F       1  UNL1       -0.1658
     31 F         141.5756  143.6582  169.7677 F       1  UNL1       -0.1658
@<TRIPOS>BOND
     1     1     2    1
     2     2     3   ar
     3     3     4   ar
     4     4     5   ar
     5     5    28    1
     6    28    29    1
     7    28    30    1
     8    28    31    1
     9     5     6   ar
    10     6     7   ar
    11     7     8   ar
    12     8     9   ar
    13     9    10   ar
    14    10    11    2
    15    10    12   ar
    16    12    13    1
    17    13    14   ar
    18    14    15   ar
    19    15    16   ar
    20    16    19    1
    21    19    20    1
    22    20    21    1
    23    21    22    1
    24    22    23    1
    25    23    24    1
    26    24    25    1
    27    25    26    1
    28    26    27    1
    29    16    17   ar
    30    17    18   ar
    31    12     2   ar
    32    18    13   ar
    33     9     4   ar
    34    27    23    1
@<TRIPOS>MOLECULE
*****
 31 34 0 0 0
SMALL
GASTEIGER

@<TRIPOS>ATOM
      1 C         142.6715  143.1788  164.8579 C.3     1  UNL1        0.0723
      2 C         141.8552  142.4290  165.8687 C.ar    1  UNL1        0.1268
      3 N         142.2511  142.4478  167.3154 N.ar    1  UNL1       -0.2319
      4 C         141.4348  141.6981  168.3261 C.ar    1  UNL1        0.0910
      5 C         141.8307  141.7169  169.7728 C.ar    1  UNL1        0.0892
      6 C         141.0144  140.9672  170.7835 C.ar    1  UNL1        0.0054
      7 C         139.8022  140.1986  170.3475 C.ar    1  UNL1        0.0002
      8 C         139.4064  140.1798  168.9009 C.ar    1  UNL1        0.0063
      9 C         140.2227  140.9295  167.8902 C.ar    1  UNL1        0.0741
     10 C         139.8268  140.9108  166.4434 C.ar    1  UNL1        0.2669
     11 O         138.6147  140.1422  166.0074 O.2     1  UNL1       -0.2665
     12 N         140.6431  141.6605  165.4327 N.ar    1  UNL1       -0.2626
     13 C         140.2473  141.6417  163.9860 C.ar    1  UNL1        0.0681
     14 C         139.0998  142.4832  163.5114 C.ar    1  UNL1        0.0208
     15 C         138.7040  142.4645  162.0647 C.ar    1  UNL1        0.0384
     16 C         139.4555  141.6042  161.0926 C.ar    1  UNL1        0.1386
     17 C         140.6030  140.7627  161.5672 C.ar    1  UNL1        0.0384
     18 C         140.9988  140.7814  163.0139 C.ar    1  UNL1        0.0208
     19 O         139.0597  141.5854  159.6459 O.3     1  UNL1       -0.4754
     20 C         139.1365  142.8424  158.8309 C.3     1  UNL1        0.2068
     21 C         140.4243  143.2269  158.1649 C.3     1  UNL1        0.0646
     22 C         141.4451  144.0311  158.9140 C.3     1  UNL1        0.0759
     23 N         141.0661  144.7228  160.1899 N.3     1  UNL1       -0.2726
     24 C         139.9760  145.7406  160.3509 C.3     1  UNL1        0.0721
     25 C         139.9467  146.1649  161.7893 C.3     1  UNL1        0.0188
     26 C         141.0188  145.4094  162.5174 C.3     1  UNL1        0.0188
     27 C         141.7106  144.5181  161.5288 C.3     1  UNL1        0.0721
     28 C         143.0428  142.4854  170.2088 C.3     1  UNL1        0.4200
     29 F         144.2549  143.2540  170.6448 F       1  UNL1       -0.1658
     30 F         142.2114  143.7281  170.3297 F       1  UNL1       -0.1658
     31 F         143.8742  141.2428  170.0879 F       1  UNL1       -0.1658
@<TRIPOS>BOND
     1     1     2    1
     2     2     3   ar
     3     3     4   ar
     4     4     5   ar
     5     5    28    1
     6    28    29    1
     7    28    30    1
     8    28    31    1
     9     5     6   ar
    10     6     7   ar
    11     7     8   ar
    12     8     9   ar
    13     9    10   ar
    14    10    11    2
    15    10    12   ar
    16    12    13    1
    17    13    14   ar
    18    14    15   ar
    19    15    16   ar
    20    16    19    1
    21    19    20    1
    22    20    21    1
    23    21    22    1
    24    22    23    1
    25    23    24    1
    26    24    25    1
    27    25    26    1
    28    26    27    1
    29    16    17   ar
    30    17    18   ar
    31    12     2   ar
    32    18    13   ar
    33     9     4   ar
    34    27    23    1
@<TRIPOS>MOLECULE
*****
 31 34 0 0 0
SMALL
GASTEIGER

@<TRIPOS>ATOM
      1 C         138.1008  139.8943  165.6081 C.3     1  UNL1        0.0723
      2 C         139.3543  140.5472  166.1110 C.ar    1  UNL1        0.1268
      3 N         139.7752  140.3627  167.5388 N.ar    1  UNL1       -0.2319
      4 C         141.0286  141.0155  168.0416 C.ar    1  UNL1        0.0910
      5 C         141.4495  140.8310  169.4694 C.ar    1  UNL1        0.0892
      6 C         142.7029  141.4838  169.9721 C.ar    1  UNL1        0.0054
      7 C         143.5354  142.3212  169.0471 C.ar    1  UNL1        0.0002
      8 C         143.1144  142.5058  167.6192 C.ar    1  UNL1        0.0063
      9 C         141.8611  141.8529  167.1165 C.ar    1  UNL1        0.0741
     10 C         141.4401  142.0375  165.6886 C.ar    1  UNL1        0.2669
     11 O         142.2725  142.8748  164.7635 O.2     1  UNL1       -0.2665
     12 N         140.1867  141.3846  165.1859 N.ar    1  UNL1       -0.2626
     13 C         139.7657  141.5691  163.7580 C.ar    1  UNL1        0.0681
     14 C         140.4034  140.7488  162.6761 C.ar    1  UNL1        0.0208
     15 C         139.9825  140.9333  161.2483 C.ar    1  UNL1        0.0384
     16 C         138.9239  141.9381  160.9023 C.ar    1  UNL1        0.1386
     17 C         138.2862  142.7584  161.9842 C.ar    1  UNL1        0.0384
     18 C         138.7071  142.5739  163.4120 C.ar    1  UNL1        0.0208
     19 O         138.5029  142.1226  159.4744 O.3     1  UNL1       -0.4754
     20 C         139.5350  142.3684  158.4140 C.3     1  UNL1        0.2068
     21 C         139.5764  143.6863  157.6989 C.3     1  UNL1        0.0646
     22 C         140.1996  144.8794  158.3608 C.3     1  UNL1        0.0759
     23 N         140.8324  144.7413  159.7137 N.3     1  UNL1       -0.2726
     24 C         140.3895  145.4329  160.9690 C.3     1  UNL1        0.0721
     25 C         141.3026  145.0065  162.0801 C.3     1  UNL1        0.0188
     26 C         142.3098  144.0513  161.5115 C.3     1  UNL1        0.0188
     27 C         142.0192  143.8874  160.0490 C.3     1  UNL1        0.0721
     28 C         140.6171  139.9936  170.3945 C.3     1  UNL1        0.4200
     29 F         139.7846  139.1562  171.3196 F       1  UNL1       -0.1658
     30 F         139.6441  141.1254  170.5435 F       1  UNL1       -0.1658
     31 F         141.5901  138.8617  170.2455 F       1  UNL1       -0.1658
@<TRIPOS>BOND
     1     1     2    1
     2     2     3   ar
     3     3     4   ar
     4     4     5   ar
     5     5    28    1
     6    28    29    1
     7    28    30    1
     8    28    31    1
     9     5     6   ar
    10     6     7   ar
    11     7     8   ar
    12     8     9   ar
    13     9    10   ar
    14    10    11    2
    15    10    12   ar
    16    12    13    1
    17    13    14   ar
    18    14    15   ar
    19    15    16   ar
    20    16    19    1
    21    19    20    1
    22    20    21    1
    23    21    22    1
    24    22    23    1
    25    23    24    1
    26    24    25    1
    27    25    26    1
    28    26    27    1
    29    16    17   ar
    30    17    18   ar
    31    12     2   ar
    32    18    13   ar
    33     9     4   ar
    34    27    23    1
