@<TRIPOS>MOLECULE
*****
 28 31 0 0 0
SMALL
GASTEIGER

@<TRIPOS>ATOM
      1 C         140.3153  140.9867  164.5751 C.3     1  UNL1        0.1687
      2 C         141.2944  140.2585  163.7027 C.3     1  UNL1        0.0595
      3 C         140.9519  138.9023  163.1609 C.3     1  UNL1        0.0614
      4 C         140.2158  137.6305  162.8601 C.3     1  UNL1        0.0175
      5 C         138.8875  137.6885  163.5546 C.3     1  UNL1        0.0175
      6 C         138.8027  138.9961  164.2845 C.3     1  UNL1        0.0614
      7 C         138.9937  140.3588  164.9056 C.3     1  UNL1        0.0595
      8 N         140.0786  139.7463  164.0412 N.3     1  UNL1       -0.2713
      9 O         140.6578  142.3429  165.1170 O.3     1  UNL1       -0.4768
     10 C         141.9915  142.7865  169.3918 C.ar    1  UNL1        0.0556
     11 C         140.5821  143.1264  169.0067 C.ar    1  UNL1        0.0078
     12 C         140.1376  142.9785  167.5818 C.ar    1  UNL1        0.0394
     13 C         141.1023  142.4908  166.5420 C.ar    1  UNL1        0.1656
     14 C         142.5116  142.1509  166.9270 C.ar    1  UNL1        0.1740
     15 F         143.4764  141.6631  165.8871 F       1  UNL1       -0.2010
     16 C         142.9562  142.2988  168.3520 C.ar    1  UNL1        0.0373
     17 N         143.5062  143.9245  171.1697 N.am    1  UNL1       -0.3253
     18 C         142.4360  142.9344  170.8168 C.2     1  UNL1        0.2428
     19 O         141.8105  142.0922  171.8889 O.2     1  UNL1       -0.2704
     20 H         143.7979  144.0216  172.1049 H       1  UNL1        0.1453
     21 H         143.9167  144.4773  170.4661 H       1  UNL1        0.1453
     22 C         140.4211  141.1025  164.5831 C.3     1  UNL1        0.0991
     23 C         139.8220  142.3306  163.9644 C.ar    1  UNL1       -0.0061
     24 C         138.4256  142.7456  164.3219 C.ar    1  UNL1       -0.0029
     25 C         137.8266  143.9736  163.7032 C.ar    1  UNL1       -0.0003
     26 C         138.6239  144.7868  162.7269 C.ar    1  UNL1       -0.0000
     27 C         140.0203  144.3718  162.3694 C.ar    1  UNL1       -0.0003
     28 C         140.6193  143.1437  162.9881 C.ar    1  UNL1       -0.0029
@<TRIPOS>BOND
     1    17    18   am
     2    18    19    2
     3    18    10    1
     4    10    11   ar
     5    11    12   ar
     6    12    13   ar
     7    13     9    1
     8     1     9    1
     9     1     2    1
    10     3     2    1
    11     3     4    1
    12     4     5    1
    13     6     5    1
    14     6     7    1
    15     6     8    1
    16     8    22    1
    17    22    23    1
    18    23    24   ar
    19    24    25   ar
    20    25    26   ar
    21    26    27   ar
    22    27    28   ar
    23    13    14   ar
    24    14    15    1
    25    14    16   ar
    26    16    10   ar
    27     7     1    1
    28    28    23   ar
    29     8     3    1
    30    17    20    1
    31    17    21    1
@<TRIPOS>MOLECULE
*****
 28 31 0 0 0
SMALL
GASTEIGER

@<TRIPOS>ATOM
      1 C         139.7228  141.5901  164.5815 C.3     1  UNL1        0.1687
      2 C         140.6114  142.7137  164.1368 C.3     1  UNL1        0.0595
      3 C         140.0130  143.9479  163.5296 C.3     1  UNL1        0.0614
      4 C         139.0200  144.9409  163.0025 C.3     1  UNL1        0.0175
      5 C         137.6484  144.3560  163.1655 C.3     1  UNL1        0.0175
      6 C         137.7937  143.0015  163.7933 C.3     1  UNL1        0.0614
      7 C         138.2357  141.7007  164.4191 C.3     1  UNL1        0.0595
      8 N         139.2551  142.7492  164.0184 N.3     1  UNL1       -0.2713
      9 O         140.3212  140.3559  165.1888 O.3     1  UNL1       -0.4768
     10 C         141.8492  140.4442  169.4204 C.ar    1  UNL1        0.0556
     11 C         142.7501  140.8427  168.2892 C.ar    1  UNL1        0.0078
     12 C         142.2408  140.8132  166.8788 C.ar    1  UNL1        0.0394
     13 C         140.8306  140.3853  166.5994 C.ar    1  UNL1        0.1656
     14 C         139.9297  139.9868  167.7304 C.ar    1  UNL1        0.1740
     15 F         138.5194  139.5588  167.4510 F       1  UNL1       -0.2010
     16 C         140.4390  140.0162  169.1410 C.ar    1  UNL1        0.0373
     17 N         143.5664  139.6686  171.2092 N.am    1  UNL1       -0.3253
     18 C         142.3586  140.4736  170.8310 C.2     1  UNL1        0.2428
     19 O         141.6601  141.3080  171.8634 O.2     1  UNL1       -0.2704
     20 H         143.9007  139.6879  172.1351 H       1  UNL1        0.1453
     21 H         144.0249  139.1209  170.5317 H       1  UNL1        0.1453
     22 C         139.8535  141.5151  164.6256 C.3     1  UNL1        0.0991
     23 C         139.8844  140.2345  163.8451 C.ar    1  UNL1       -0.0061
     24 C         138.8216  139.1984  164.0616 C.ar    1  UNL1       -0.0029
     25 C         138.8525  137.9178  163.2812 C.ar    1  UNL1       -0.0003
     26 C         139.9462  137.6734  162.2842 C.ar    1  UNL1       -0.0000
     27 C         141.0090  138.7095  162.0675 C.ar    1  UNL1       -0.0003
     28 C         140.9781  139.9901  162.8481 C.ar    1  UNL1       -0.0029
@<TRIPOS>BOND
     1    17    18   am
     2    18    19    2
     3    18    10    1
     4    10    11   ar
     5    11    12   ar
     6    12    13   ar
     7    13     9    1
     8     1     9    1
     9     1     2    1
    10     3     2    1
    11     3     4    1
    12     4     5    1
    13     6     5    1
    14     6     7    1
    15     6     8    1
    16     8    22    1
    17    22    23    1
    18    23    24   ar
    19    24    25   ar
    20    25    26   ar
    21    26    27   ar
    22    27    28   ar
    23    13    14   ar
    24    14    15    1
    25    14    16   ar
    26    16    10   ar
    27     7     1    1
    28    28    23   ar
    29     8     3    1
    30    17    20    1
    31    17    21    1
@<TRIPOS>MOLECULE
*****
 28 31 0 0 0
SMALL
GASTEIGER

@<TRIPOS>ATOM
      1 C         141.8630  141.0653  164.6326 C.3     1  UNL1        0.1687
      2 C         143.1326  140.5388  165.2333 C.3     1  UNL1        0.0595
      3 C         144.4406  140.7561  164.5320 C.3     1  UNL1        0.0614
      4 C         145.4650  141.1893  163.5256 C.3     1  UNL1        0.0175
      5 C         144.7541  141.9227  162.4270 C.3     1  UNL1        0.0175
      6 C         143.2905  141.9427  162.7545 C.3     1  UNL1        0.0614
      7 C         141.9014  141.8091  163.3305 C.3     1  UNL1        0.0595
      8 N         143.0967  141.2217  164.0555 N.3     1  UNL1       -0.2713
      9 O         140.5549  140.8480  165.3339 O.3     1  UNL1       -0.4768
     10 C         140.0622  142.1212  169.6218 C.ar    1  UNL1        0.0556
     11 C         140.6809  143.0585  168.6275 C.ar    1  UNL1        0.0078
     12 C         140.8451  142.6341  167.1982 C.ar    1  UNL1        0.0394
     13 C         140.3906  141.2724  166.7632 C.ar    1  UNL1        0.1656
     14 C         139.7720  140.3351  167.7574 C.ar    1  UNL1        0.1740
     15 F         139.3175  138.9734  167.3224 F       1  UNL1       -0.2010
     16 C         139.6077  140.7595  169.1868 C.ar    1  UNL1        0.0373
     17 N         138.8323  143.5337  171.4224 N.am    1  UNL1       -0.3253
     18 C         139.8980  142.5456  171.0511 C.2     1  UNL1        0.2428
     19 O         140.7995  141.9819  172.1091 O.2     1  UNL1       -0.2704
     20 H         138.7245  143.8122  172.3605 H       1  UNL1        0.1453
     21 H         138.2406  143.9037  170.7280 H       1  UNL1        0.1453
     22 C         141.7886  141.0044  164.7568 C.3     1  UNL1        0.0991
     23 C         140.8404  139.9509  164.2659 C.ar    1  UNL1       -0.0061
     24 C         139.5771  140.3483  163.5615 C.ar    1  UNL1       -0.0029
     25 C         138.6289  139.2949  163.0707 C.ar    1  UNL1       -0.0003
     26 C         138.9439  137.8440  163.2843 C.ar    1  UNL1       -0.0000
     27 C         140.2072  137.4465  163.9888 C.ar    1  UNL1       -0.0003
     28 C         141.1554  138.5001  164.4796 C.ar    1  UNL1       -0.0029
@<TRIPOS>BOND
     1    17    18   am
     2    18    19    2
     3    18    10    1
     4    10    11   ar
     5    11    12   ar
     6    12    13   ar
     7    13     9    1
     8     1     9    1
     9     1     2    1
    10     3     2    1
    11     3     4    1
    12     4     5    1
    13     6     5    1
    14     6     7    1
    15     6     8    1
    16     8    22    1
    17    22    23    1
    18    23    24   ar
    19    24    25   ar
    20    25    26   ar
    21    26    27   ar
    22    27    28   ar
    23    13    14   ar
    24    14    15    1
    25    14    16   ar
    26    16    10   ar
    27     7     1    1
    28    28    23   ar
    29     8     3    1
    30    17    20    1
    31    17    21    1
@<TRIPOS>MOLECULE
*****
 28 31 0 0 0
SMALL
GASTEIGER

@<TRIPOS>ATOM
      1 C         139.5232  141.4812  164.6892 C.3     1  UNL1        0.1687
      2 C         140.4650  142.6288  164.4751 C.3     1  UNL1        0.0595
      3 C         139.9722  143.8949  163.8393 C.3     1  UNL1        0.0614
      4 C         139.0796  144.9154  163.1975 C.3     1  UNL1        0.0175
      5 C         137.7075  144.3211  163.0777 C.3     1  UNL1        0.0175
      6 C         137.7522  142.9334  163.6453 C.3     1  UNL1        0.0614
      7 C         138.0885  141.5996  164.2675 C.3     1  UNL1        0.0595
      8 N         139.1518  142.6699  164.1160 N.3     1  UNL1       -0.2713
      9 O         140.0160  140.2151  165.3250 O.3     1  UNL1       -0.4768
     10 C         141.7538  140.3098  169.4748 C.ar    1  UNL1        0.0556
     11 C         140.2686  140.2186  169.2855 C.ar    1  UNL1        0.0078
     12 C         139.6894  140.1870  167.9023 C.ar    1  UNL1        0.0394
     13 C         140.5953  140.2467  166.7083 C.ar    1  UNL1        0.1656
     14 C         142.0804  140.3379  166.8974 C.ar    1  UNL1        0.1740
     15 F         142.9863  140.3975  165.7034 F       1  UNL1       -0.2010
     16 C         142.6597  140.3695  168.2807 C.ar    1  UNL1        0.0373
     17 N         143.5956  139.5897  171.1598 N.am    1  UNL1       -0.3253
     18 C         142.3331  140.3414  170.8580 C.2     1  UNL1        0.2428
     19 O         141.6499  141.1247  171.9396 O.2     1  UNL1       -0.2704
     20 H         143.9758  139.6105  172.0677 H       1  UNL1        0.1453
     21 H         144.0441  139.0756  170.4500 H       1  UNL1        0.1453
     22 C         139.6447  141.4039  164.7518 C.3     1  UNL1        0.0991
     23 C         139.8011  140.1615  163.9261 C.ar    1  UNL1       -0.0061
     24 C         138.7858  139.0619  164.0258 C.ar    1  UNL1       -0.0029
     25 C         138.9422  137.8195  163.2001 C.ar    1  UNL1       -0.0003
     26 C         140.1140  137.6766  162.2746 C.ar    1  UNL1       -0.0000
     27 C         141.1294  138.7763  162.1748 C.ar    1  UNL1       -0.0003
     28 C         140.9729  140.0187  163.0006 C.ar    1  UNL1       -0.0029
@<TRIPOS>BOND
     1    17    18   am
     2    18    19    2
     3    18    10    1
     4    10    11   ar
     5    11    12   ar
     6    12    13   ar
     7    13     9    1
     8     1     9    1
     9     1     2    1
    10     3     2    1
    11     3     4    1
    12     4     5    1
    13     6     5    1
    14     6     7    1
    15     6     8    1
    16     8    22    1
    17    22    23    1
    18    23    24   ar
    19    24    25   ar
    20    25    26   ar
    21    26    27   ar
    22    27    28   ar
    23    13    14   ar
    24    14    15    1
    25    14    16   ar
    26    16    10   ar
    27     7     1    1
    28    28    23   ar
    29     8     3    1
    30    17    20    1
    31    17    21    1
@<TRIPOS>MOLECULE
*****
 28 31 0 0 0
SMALL
GASTEIGER

@<TRIPOS>ATOM
      1 C         141.3501  142.2881  164.4394 C.3     1  UNL1        0.1687
      2 C         140.9543  143.6579  164.9051 C.3     1  UNL1        0.0595
      3 C         140.1788  144.5643  163.9957 C.3     1  UNL1        0.0614
      4 C         139.4440  145.0992  162.8024 C.3     1  UNL1        0.0175
      5 C         139.4532  144.0408  161.7396 C.3     1  UNL1        0.0175
      6 C         140.1937  142.8516  162.2760 C.3     1  UNL1        0.0614
      7 C         140.9703  141.8246  163.0642 C.3     1  UNL1        0.0595
      8 N         140.6421  143.1752  163.6704 N.3     1  UNL1       -0.2713
      9 O         142.1257  141.3817  165.3488 O.3     1  UNL1       -0.4768
     10 C         140.8627  140.8818  169.6388 C.ar    1  UNL1        0.0556
     11 C         140.0737  140.2276  168.5436 C.ar    1  UNL1        0.0078
     12 C         140.4947  140.3942  167.1136 C.ar    1  UNL1        0.0394
     13 C         141.7047  141.2150  166.7788 C.ar    1  UNL1        0.1656
     14 C         142.4937  141.8692  167.8740 C.ar    1  UNL1        0.1740
     15 F         143.7037  142.6901  167.5391 F       1  UNL1       -0.2010
     16 C         142.0727  141.7026  169.3040 C.ar    1  UNL1        0.0373
     17 N         139.8658  139.4105  171.5340 N.am    1  UNL1       -0.3253
     18 C         140.4417  140.7151  171.0689 C.2     1  UNL1        0.2428
     19 O         140.5966  141.8531  172.0338 O.2     1  UNL1       -0.2704
     20 H         139.5895  139.3012  172.4726 H       1  UNL1        0.1453
     21 H         139.7641  138.6636  170.9007 H       1  UNL1        0.1453
     22 C         141.4177  142.2689  164.5798 C.3     1  UNL1        0.0991
     23 C         142.8419  141.9244  164.2590 C.ar    1  UNL1       -0.0061
     24 C         143.2007  140.5283  163.8443 C.ar    1  UNL1       -0.0029
     25 C         144.6249  140.1838  163.5235 C.ar    1  UNL1       -0.0003
     26 C         145.6903  141.2355  163.6174 C.ar    1  UNL1       -0.0000
     27 C         145.3315  142.6317  164.0321 C.ar    1  UNL1       -0.0003
     28 C         143.9072  142.9761  164.3529 C.ar    1  UNL1       -0.0029
@<TRIPOS>BOND
     1    17    18   am
     2    18    19    2
     3    18    10    1
     4    10    11   ar
     5    11    12   ar
     6    12    13   ar
     7    13     9    1
     8     1     9    1
     9     1     2    1
    10     3     2    1
    11     3     4    1
    12     4     5    1
    13     6     5    1
    14     6     7    1
    15     6     8    1
    16     8    22    1
    17    22    23    1
    18    23    24   ar
    19    24    25   ar
    20    25    26   ar
    21    26    27   ar
    22    27    28   ar
    23    13    14   ar
    24    14    15    1
    25    14    16   ar
    26    16    10   ar
    27     7     1    1
    28    28    23   ar
    29     8     3    1
    30    17    20    1
    31    17    21    1
@<TRIPOS>MOLECULE
*****
 28 31 0 0 0
SMALL
GASTEIGER

@<TRIPOS>ATOM
      1 C         142.8246  140.2681  164.6594 C.3     1  UNL1        0.1687
      2 C         142.6136  141.7530  164.6843 C.3     1  UNL1        0.0595
      3 C         143.6217  142.6645  164.0496 C.3     1  UNL1        0.0614
      4 C         144.8355  143.1643  163.3237 C.3     1  UNL1        0.0175
      5 C         145.6611  141.9760  162.9284 C.3     1  UNL1        0.0175
      6 C         144.9576  140.7418  163.4100 C.3     1  UNL1        0.0614
      7 C         144.0437  139.6948  163.9996 C.3     1  UNL1        0.0595
      8 N         143.6971  141.1673  164.1029 N.3     1  UNL1       -0.2713
      9 O         141.8166  139.3565  165.2941 O.3     1  UNL1       -0.4768
     10 C         140.6681  139.9277  169.6074 C.ar    1  UNL1        0.0556
     11 C         142.0681  139.5238  169.2512 C.ar    1  UNL1        0.0078
     12 C         142.4509  139.3334  167.8135 C.ar    1  UNL1        0.0394
     13 C         141.4337  139.5469  166.7319 C.ar    1  UNL1        0.1656
     14 C         140.0338  139.9508  167.0881 C.ar    1  UNL1        0.1740
     15 F         139.0167  140.1643  166.0065 F       1  UNL1       -0.2010
     16 C         139.6510  140.1412  168.5259 C.ar    1  UNL1        0.0373
     17 N         139.4961  139.0600  171.7577 N.am    1  UNL1       -0.3253
     18 C         140.2853  140.1181  171.0452 C.2     1  UNL1        0.2428
     19 O         140.6916  141.3666  171.7705 O.2     1  UNL1       -0.2704
     20 H         139.2448  139.1850  172.7013 H       1  UNL1        0.1453
     21 H         139.2294  138.2406  171.2816 H       1  UNL1        0.1453
     22 C         142.6891  140.2558  164.7376 C.3     1  UNL1        0.0991
     23 C         141.7402  139.4731  163.8791 C.ar    1  UNL1       -0.0061
     24 C         140.7097  140.1877  163.0561 C.ar    1  UNL1       -0.0029
     25 C         139.7609  139.4050  162.1977 C.ar    1  UNL1       -0.0003
     26 C         139.8425  137.9077  162.1622 C.ar    1  UNL1       -0.0000
     27 C         140.8731  137.1930  162.9852 C.ar    1  UNL1       -0.0003
     28 C         141.8219  137.9758  163.8437 C.ar    1  UNL1       -0.0029
@<TRIPOS>BOND
     1    17    18   am
     2    18    19    2
     3    18    10    1
     4    10    11   ar
     5    11    12   ar
     6    12    13   ar
     7    13     9    1
     8     1     9    1
     9     1     2    1
    10     3     2    1
    11     3     4    1
    12     4     5    1
    13     6     5    1
    14     6     7    1
    15     6     8    1
    16     8    22    1
    17    22    23    1
    18    23    24   ar
    19    24    25   ar
    20    25    26   ar
    21    26    27   ar
    22    27    28   ar
    23    13    14   ar
    24    14    15    1
    25    14    16   ar
    26    16    10   ar
    27     7     1    1
    28    28    23   ar
    29     8     3    1
    30    17    20    1
    31    17    21    1
@<TRIPOS>MOLECULE
*****
 28 31 0 0 0
SMALL
GASTEIGER

@<TRIPOS>ATOM
      1 C         139.8172  140.9657  166.5367 C.3     1  UNL1        0.1687
      2 C         140.5128  142.1784  167.0802 C.3     1  UNL1        0.0595
      3 C         140.6247  142.3774  168.5627 C.3     1  UNL1        0.0614
      4 C         140.5029  142.1696  170.0432 C.3     1  UNL1        0.0175
      5 C         139.7644  140.8842  170.2716 C.3     1  UNL1        0.0175
      6 C         139.4297  140.2976  168.9322 C.3     1  UNL1        0.0614
      7 C         139.2335  139.9520  167.4758 C.3     1  UNL1        0.0595
      8 N         139.9614  141.2205  167.8760 N.3     1  UNL1       -0.2713
      9 O         139.7053  140.7665  165.0542 O.3     1  UNL1       -0.4768
     10 C         140.1241  144.2802  162.2742 C.ar    1  UNL1        0.0556
     11 C         141.2711  143.3321  162.4627 C.ar    1  UNL1        0.0078
     12 C         141.1315  142.1609  163.3893 C.ar    1  UNL1        0.0394
     13 C         139.8449  141.9378  164.1275 C.ar    1  UNL1        0.1656
     14 C         138.6979  142.8858  163.9390 C.ar    1  UNL1        0.1740
     15 F         137.4113  142.6627  164.6772 F       1  UNL1       -0.2010
     16 C         138.8375  144.0571  163.0123 C.ar    1  UNL1        0.0373
     17 N         141.4484  145.5468  160.4324 N.am    1  UNL1       -0.3253
     18 C         140.2637  145.4515  161.3475 C.2     1  UNL1        0.2428
     19 O         139.2187  146.5274  161.3360 O.2     1  UNL1       -0.2704
     20 H         141.5400  146.3155  159.8242 H       1  UNL1        0.1453
     21 H         142.1343  144.8406  160.4399 H       1  UNL1        0.1453
     22 C         139.8495  141.0214  166.3935 C.3     1  UNL1        0.0991
     23 C         140.2795  139.7236  165.7764 C.ar    1  UNL1       -0.0061
     24 C         139.2593  138.8087  165.1666 C.ar    1  UNL1       -0.0029
     25 C         139.6892  137.5109  164.5496 C.ar    1  UNL1       -0.0003
     26 C         141.1395  137.1281  164.5423 C.ar    1  UNL1       -0.0000
     27 C         142.1599  138.0431  165.1521 C.ar    1  UNL1       -0.0003
     28 C         141.7298  139.3409  165.7692 C.ar    1  UNL1       -0.0029
@<TRIPOS>BOND
     1    17    18   am
     2    18    19    2
     3    18    10    1
     4    10    11   ar
     5    11    12   ar
     6    12    13   ar
     7    13     9    1
     8     1     9    1
     9     1     2    1
    10     3     2    1
    11     3     4    1
    12     4     5    1
    13     6     5    1
    14     6     7    1
    15     6     8    1
    16     8    22    1
    17    22    23    1
    18    23    24   ar
    19    24    25   ar
    20    25    26   ar
    21    26    27   ar
    22    27    28   ar
    23    13    14   ar
    24    14    15    1
    25    14    16   ar
    26    16    10   ar
    27     7     1    1
    28    28    23   ar
    29     8     3    1
    30    17    20    1
    31    17    21    1
@<TRIPOS>MOLECULE
*****
 28 31 0 0 0
SMALL
GASTEIGER

@<TRIPOS>ATOM
      1 C         140.8773  139.3710  164.8455 C.3     1  UNL1        0.1687
      2 C         139.8463  140.3684  164.4072 C.3     1  UNL1        0.0595
      3 C         138.8320  139.9914  163.3684 C.3     1  UNL1        0.0614
      4 C         138.0543  139.2097  162.3515 C.3     1  UNL1        0.0175
      5 C         138.6593  137.8403  162.2579 C.3     1  UNL1        0.0175
      6 C         139.8108  137.7757  163.2169 C.3     1  UNL1        0.0614
      7 C         140.8940  137.9965  164.2450 C.3     1  UNL1        0.0595
      8 N         139.9176  139.1052  163.9033 N.3     1  UNL1       -0.2713
      9 O         141.8917  139.7480  165.8844 O.3     1  UNL1       -0.4768
     10 C         140.6259  142.0654  169.5281 C.ar    1  UNL1        0.0556
     11 C         139.8642  140.8406  169.1162 C.ar    1  UNL1        0.0078
     12 C         140.2861  140.0682  167.9017 C.ar    1  UNL1        0.0394
     13 C         141.4697  140.5205  167.0990 C.ar    1  UNL1        0.1656
     14 C         142.2314  141.7452  167.5108 C.ar    1  UNL1        0.1740
     15 F         143.4151  142.1975  166.7081 F       1  UNL1       -0.2010
     16 C         141.8095  142.5177  168.7254 C.ar    1  UNL1        0.0373
     17 N         139.6870  144.2387  170.5985 N.am    1  UNL1       -0.3253
     18 C         140.2039  142.8379  170.7427 C.2     1  UNL1        0.2428
     19 O         140.2989  142.2097  172.1015 O.2     1  UNL1       -0.2704
     20 H         139.4101  144.7457  171.3957 H       1  UNL1        0.1453
     21 H         139.6247  144.6510  169.7067 H       1  UNL1        0.1453
     22 C         140.9319  139.4822  164.9421 C.3     1  UNL1        0.0991
     23 C         142.3427  139.7900  164.5359 C.ar    1  UNL1       -0.0061
     24 C         143.4642  138.9034  164.9899 C.ar    1  UNL1       -0.0029
     25 C         144.8749  139.2112  164.5838 C.ar    1  UNL1       -0.0003
     26 C         145.1642  140.4055  163.7236 C.ar    1  UNL1       -0.0000
     27 C         144.0426  141.2922  163.2696 C.ar    1  UNL1       -0.0003
     28 C         142.6318  140.9843  163.6758 C.ar    1  UNL1       -0.0029
@<TRIPOS>BOND
     1    17    18   am
     2    18    19    2
     3    18    10    1
     4    10    11   ar
     5    11    12   ar
     6    12    13   ar
     7    13     9    1
     8     1     9    1
     9     1     2    1
    10     3     2    1
    11     3     4    1
    12     4     5    1
    13     6     5    1
    14     6     7    1
    15     6     8    1
    16     8    22    1
    17    22    23    1
    18    23    24   ar
    19    24    25   ar
    20    25    26   ar
    21    26    27   ar
    22    27    28   ar
    23    13    14   ar
    24    14    15    1
    25    14    16   ar
    26    16    10   ar
    27     7     1    1
    28    28    23   ar
    29     8     3    1
    30    17    20    1
    31    17    21    1
@<TRIPOS>MOLECULE
*****
 28 31 0 0 0
SMALL
GASTEIGER

@<TRIPOS>ATOM
      1 C         141.7335  141.9184  164.3731 C.3     1  UNL1        0.1687
      2 C         142.9613  142.6886  164.7592 C.3     1  UNL1        0.0595
      3 C         144.2366  142.5008  163.9921 C.3     1  UNL1        0.0614
      4 C         145.2389  142.0138  162.9880 C.3     1  UNL1        0.0175
      5 C         144.5573  141.0160  162.0993 C.3     1  UNL1        0.0175
      6 C         143.1339  140.8862  162.5542 C.3     1  UNL1        0.0614
      7 C         141.7809  140.9603  163.2199 C.3     1  UNL1        0.0595
      8 N         142.9356  141.8039  163.7240 N.3     1  UNL1       -0.2713
      9 O         140.4582  142.1062  165.1402 O.3     1  UNL1       -0.4768
     10 C         140.3185  141.1645  169.5383 C.ar    1  UNL1        0.0556
     11 C         140.5244  142.5779  169.0801 C.ar    1  UNL1        0.0078
     12 C         140.5709  142.8918  167.6141 C.ar    1  UNL1        0.0394
     13 C         140.4116  141.7923  166.6063 C.ar    1  UNL1        0.1656
     14 C         140.2058  140.3789  167.0644 C.ar    1  UNL1        0.1740
     15 F         140.0465  139.2795  166.0566 F       1  UNL1       -0.2010
     16 C         140.1593  140.0651  168.5305 C.ar    1  UNL1        0.0373
     17 N         139.9773  139.4533  171.4632 N.am    1  UNL1       -0.3253
     18 C         140.2720  140.8507  171.0044 C.2     1  UNL1        0.2428
     19 O         140.5202  141.9341  172.0116 O.2     1  UNL1       -0.2704
     20 H         139.9467  139.2473  172.4254 H       1  UNL1        0.1453
     21 H         139.8144  138.7422  170.8022 H       1  UNL1        0.1453
     22 C         141.6604  141.9917  164.4911 C.3     1  UNL1        0.0991
     23 C         140.5225  142.7541  163.8794 C.ar    1  UNL1       -0.0061
     24 C         140.5525  144.2536  163.8534 C.ar    1  UNL1       -0.0029
     25 C         139.4147  145.0159  163.2417 C.ar    1  UNL1       -0.0003
     26 C         138.2469  144.2788  162.6561 C.ar    1  UNL1       -0.0000
     27 C         138.2169  142.7793  162.6822 C.ar    1  UNL1       -0.0003
     28 C         139.3548  142.0170  163.2939 C.ar    1  UNL1       -0.0029
@<TRIPOS>BOND
     1    17    18   am
     2    18    19    2
     3    18    10    1
     4    10    11   ar
     5    11    12   ar
     6    12    13   ar
     7    13     9    1
     8     1     9    1
     9     1     2    1
    10     3     2    1
    11     3     4    1
    12     4     5    1
    13     6     5    1
    14     6     7    1
    15     6     8    1
    16     8    22    1
    17    22    23    1
    18    23    24   ar
    19    24    25   ar
    20    25    26   ar
    21    26    27   ar
    22    27    28   ar
    23    13    14   ar
    24    14    15    1
    25    14    16   ar
    26    16    10   ar
    27     7     1    1
    28    28    23   ar
    29     8     3    1
    30    17    20    1
    31    17    21    1
