@<TRIPOS>MOLECULE
*****
 34 37 0 0 0
SMALL
GASTEIGER

@<TRIPOS>ATOM
      1 O         139.4234  142.6832  166.0409 O.3     1  UNL1       -0.3780
      2 C         140.6503  142.7116  165.1784 C.3     1  UNL1        0.1368
      3 H         138.9069  141.8866  165.8422 H       1  UNL1        0.2111
      4 C         139.7874  142.7298  163.9515 C.ar    1  UNL1        0.0520
      5 C         139.7538  141.5386  163.0405 C.ar    1  UNL1        0.0037
      6 C         138.8910  141.5568  161.8137 C.ar    1  UNL1        0.0206
      7 C         138.0618  142.7662  161.4978 C.ar    1  UNL1        0.1013
      8 N         138.0955  143.9574  162.4088 N.ar    1  UNL1       -0.2167
      9 C         138.9583  143.9392  163.6356 C.ar    1  UNL1        0.2207
     10 F         138.9919  145.1304  164.5466 F       1  UNL1       -0.1835
     11 C         141.8772  142.7400  164.3160 C.ar    1  UNL1        0.0520
     12 C         142.5337  141.4560  163.9033 C.ar    1  UNL1        0.0037
     13 C         143.7607  141.4844  163.0408 C.ar    1  UNL1        0.0206
     14 C         144.3310  142.7967  162.5910 C.ar    1  UNL1        0.1013
     15 N         143.6745  144.0807  163.0036 N.ar    1  UNL1       -0.2167
     16 C         142.4476  144.0524  163.8661 C.ar    1  UNL1        0.2207
     17 F         141.7910  145.3364  164.2787 F       1  UNL1       -0.1835
     18 C         141.5131  142.6934  166.4052 C.3     1  UNL1        0.0635
     19 C         140.9537  142.2047  167.7085 C.ar    1  UNL1       -0.0015
     20 C         140.5575  143.1874  168.7702 C.ar    1  UNL1       -0.0011
     21 C         139.9982  142.6988  170.0734 C.ar    1  UNL1        0.0204
     22 C         139.8349  141.2274  170.3148 C.ar    1  UNL1        0.0988
     23 N         140.2311  140.2447  169.2530 N.ar    1  UNL1       -0.2442
     24 C         140.7904  140.7333  167.9499 C.ar    1  UNL1        0.0774
     25 C         141.1866  139.7506  166.8881 C.ar    1  UNL1        0.0173
     26 C         142.6070  139.2773  166.7966 C.ar    1  UNL1        0.0015
     27 C         143.0031  138.2946  165.7348 C.ar    1  UNL1       -0.0000
     28 C         141.9789  137.7851  164.7647 C.ar    1  UNL1        0.0039
     29 C         140.5585  138.2584  164.8562 C.ar    1  UNL1        0.0715
     30 C         140.1623  139.2411  165.9179 C.ar    1  UNL1        0.0053
     31 C         139.5341  137.7489  163.8860 C.3     1  UNL1        0.4186
     32 F         138.5099  137.2395  162.9158 F       1  UNL1       -0.1659
     33 F         140.3769  138.2315  162.7429 F       1  UNL1       -0.1659
     34 F         138.6913  137.2664  165.0291 F       1  UNL1       -0.1659
@<TRIPOS>BOND
     1     1     2    1
     2     2    18    1
     3    18    19    1
     4    19    20   ar
     5    20    21   ar
     6    21    22   ar
     7    22    23   ar
     8    23    24   ar
     9    24    25    1
    10    25    26   ar
    11    26    27   ar
    12    27    28   ar
    13    28    29   ar
    14    29    31    1
    15    31    32    1
    16    31    33    1
    17    31    34    1
    18    29    30   ar
    19     2     4    1
    20     4     5   ar
    21     5     6   ar
    22     6     7   ar
    23     7     8   ar
    24     8     9   ar
    25     9    10    1
    26     2    11    1
    27    11    12   ar
    28    12    13   ar
    29    13    14   ar
    30    14    15   ar
    31    15    16   ar
    32    16    17    1
    33    24    19   ar
    34    30    25   ar
    35     9     4   ar
    36    16    11   ar
    37     1     3    1
@<TRIPOS>MOLECULE
*****
 34 37 0 0 0
SMALL
GASTEIGER

@<TRIPOS>ATOM
      1 O         140.5231  143.0058  166.6000 O.3     1  UNL1       -0.3780
      2 C         141.4792  141.9129  166.2241 C.3     1  UNL1        0.1368
      3 H         140.9471  143.6013  167.2375 H       1  UNL1        0.2111
      4 C         141.5375  141.4712  167.6565 C.ar    1  UNL1        0.0520
      5 C         140.4469  140.6097  168.2206 C.ar    1  UNL1        0.0037
      6 C         140.5052  140.1681  169.6529 C.ar    1  UNL1        0.0206
      7 C         141.6542  140.5879  170.5210 C.ar    1  UNL1        0.1013
      8 N         142.7448  141.4494  169.9569 N.ar    1  UNL1       -0.2167
      9 C         142.6865  141.8910  168.5246 C.ar    1  UNL1        0.2207
     10 F         143.7771  142.7525  167.9604 F       1  UNL1       -0.1835
     11 C         142.4353  140.8200  165.8482 C.ar    1  UNL1        0.0520
     12 C         142.0778  139.3872  166.1117 C.ar    1  UNL1        0.0037
     13 C         143.0341  138.2943  165.7358 C.ar    1  UNL1        0.0206
     14 C         144.3477  138.6342  165.0964 C.ar    1  UNL1        0.1013
     15 N         144.7052  140.0669  164.8330 N.ar    1  UNL1       -0.2167
     16 C         143.7491  141.1598  165.2088 C.ar    1  UNL1        0.2207
     17 F         144.1066  142.5926  164.9454 F       1  UNL1       -0.1835
     18 C         141.4210  142.3545  164.7918 C.3     1  UNL1        0.0635
     19 C         140.1672  142.9731  164.2481 C.ar    1  UNL1       -0.0015
     20 C         140.0971  144.4551  164.0268 C.ar    1  UNL1       -0.0011
     21 C         138.8434  145.0737  163.4831 C.ar    1  UNL1        0.0204
     22 C         137.6600  144.2104  163.1607 C.ar    1  UNL1        0.0988
     23 N         137.7301  142.7285  163.3819 N.ar    1  UNL1       -0.2442
     24 C         138.9837  142.1098  163.9256 C.ar    1  UNL1        0.0774
     25 C         139.0539  140.6279  164.1469 C.ar    1  UNL1        0.0173
     26 C         139.8314  139.7640  163.1987 C.ar    1  UNL1        0.0015
     27 C         139.9015  138.2821  163.4199 C.ar    1  UNL1       -0.0000
     28 C         139.1942  137.6640  164.5894 C.ar    1  UNL1        0.0039
     29 C         138.4167  138.5279  165.5376 C.ar    1  UNL1        0.0715
     30 C         138.3466  140.0099  165.3164 C.ar    1  UNL1        0.0053
     31 C         137.7094  137.9099  166.7072 C.3     1  UNL1        0.4186
     32 F         137.0021  137.2919  167.8766 F       1  UNL1       -0.1659
     33 F         137.8889  136.5512  166.0977 F       1  UNL1       -0.1659
     34 F         137.5298  139.2687  167.3166 F       1  UNL1       -0.1659
@<TRIPOS>BOND
     1     1     2    1
     2     2    18    1
     3    18    19    1
     4    19    20   ar
     5    20    21   ar
     6    21    22   ar
     7    22    23   ar
     8    23    24   ar
     9    24    25    1
    10    25    26   ar
    11    26    27   ar
    12    27    28   ar
    13    28    29   ar
    14    29    31    1
    15    31    32    1
    16    31    33    1
    17    31    34    1
    18    29    30   ar
    19     2     4    1
    20     4     5   ar
    21     5     6   ar
    22     6     7   ar
    23     7     8   ar
    24     8     9   ar
    25     9    10    1
    26     2    11    1
    27    11    12   ar
    28    12    13   ar
    29    13    14   ar
    30    14    15   ar
    31    15    16   ar
    32    16    17    1
    33    24    19   ar
    34    30    25   ar
    35     9     4   ar
    36    16    11   ar
    37     1     3    1
@<TRIPOS>MOLECULE
*****
 34 37 0 0 0
SMALL
GASTEIGER

@<TRIPOS>ATOM
      1 O         142.2756  142.9151  166.2266 O.3     1  UNL1       -0.3780
      2 C         141.1731  142.8970  165.2097 C.3     1  UNL1        0.1368
      3 H         142.7485  143.7604  166.1757 H       1  UNL1        0.2111
      4 C         142.1822  143.0648  164.1126 C.ar    1  UNL1        0.0520
      5 C         142.8449  141.8604  163.5125 C.ar    1  UNL1        0.0037
      6 C         143.8539  142.0283  162.4154 C.ar    1  UNL1        0.0206
      7 C         144.2002  143.4005  161.9184 C.ar    1  UNL1        0.1013
      8 N         143.5375  144.6049  162.5185 N.ar    1  UNL1       -0.2167
      9 C         142.5285  144.4371  163.6156 C.ar    1  UNL1        0.2207
     10 F         141.8657  145.6415  164.2157 F       1  UNL1       -0.1835
     11 C         140.0706  142.8789  164.1928 C.ar    1  UNL1        0.0520
     12 C         139.9351  141.7169  163.2540 C.ar    1  UNL1        0.0037
     13 C         138.8325  141.6988  162.2371 C.ar    1  UNL1        0.0206
     14 C         137.8654  142.8428  162.1590 C.ar    1  UNL1        0.1013
     15 N         138.0009  144.0048  163.0979 N.ar    1  UNL1       -0.2167
     16 C         139.1034  144.0228  164.1148 C.ar    1  UNL1        0.2207
     17 F         139.2388  145.1848  165.0536 F       1  UNL1       -0.1835
     18 C         140.1640  142.7292  166.3067 C.3     1  UNL1        0.0635
     19 C         140.5680  142.1015  167.6079 C.ar    1  UNL1       -0.0015
     20 C         140.8961  142.9671  168.7882 C.ar    1  UNL1       -0.0011
     21 C         141.3001  142.3395  170.0893 C.ar    1  UNL1        0.0204
     22 C         141.3761  140.8463  170.2100 C.ar    1  UNL1        0.0988
     23 N         141.0480  139.9808  169.0297 N.ar    1  UNL1       -0.2442
     24 C         140.6440  140.6083  167.7286 C.ar    1  UNL1        0.0774
     25 C         140.3160  139.7428  166.5483 C.ar    1  UNL1        0.0173
     26 C         138.9061  139.2822  166.3247 C.ar    1  UNL1        0.0015
     27 C         138.5781  138.4166  165.1444 C.ar    1  UNL1       -0.0000
     28 C         139.6599  138.0116  164.1877 C.ar    1  UNL1        0.0039
     29 C         141.0698  138.4721  164.4112 C.ar    1  UNL1        0.0715
     30 C         141.3979  139.3377  165.5916 C.ar    1  UNL1        0.0053
     31 C         142.1518  138.0671  163.4545 C.3     1  UNL1        0.4186
     32 F         143.2337  137.6620  162.4977 F       1  UNL1       -0.1659
     33 F         141.1186  137.5031  162.5249 F       1  UNL1       -0.1659
     34 F         143.1851  138.6311  164.3841 F       1  UNL1       -0.1659
@<TRIPOS>BOND
     1     1     2    1
     2     2    18    1
     3    18    19    1
     4    19    20   ar
     5    20    21   ar
     6    21    22   ar
     7    22    23   ar
     8    23    24   ar
     9    24    25    1
    10    25    26   ar
    11    26    27   ar
    12    27    28   ar
    13    28    29   ar
    14    29    31    1
    15    31    32    1
    16    31    33    1
    17    31    34    1
    18    29    30   ar
    19     2     4    1
    20     4     5   ar
    21     5     6   ar
    22     6     7   ar
    23     7     8   ar
    24     8     9   ar
    25     9    10    1
    26     2    11    1
    27    11    12   ar
    28    12    13   ar
    29    13    14   ar
    30    14    15   ar
    31    15    16   ar
    32    16    17    1
    33    24    19   ar
    34    30    25   ar
    35     9     4   ar
    36    16    11   ar
    37     1     3    1
@<TRIPOS>MOLECULE
*****
 34 37 0 0 0
SMALL
GASTEIGER

@<TRIPOS>ATOM
      1 O         143.8852  142.4228  166.3234 O.3     1  UNL1       -0.3780
      2 C         143.2734  141.2420  165.6296 C.3     1  UNL1        0.1368
      3 H         143.4678  143.2378  166.0034 H       1  UNL1        0.2111
      4 C         143.7282  141.7835  164.3068 C.ar    1  UNL1        0.0520
      5 C         142.9414  142.8658  163.6288 C.ar    1  UNL1        0.0037
      6 C         143.3963  143.4073  162.3060 C.ar    1  UNL1        0.0206
      7 C         144.6380  142.8665  161.6612 C.ar    1  UNL1        0.1013
      8 N         145.4248  141.7843  162.3391 N.ar    1  UNL1       -0.2167
      9 C         144.9699  141.2428  163.6619 C.ar    1  UNL1        0.2207
     10 F         145.7567  140.1605  164.3399 F       1  UNL1       -0.1835
     11 C         142.6616  140.0612  164.9359 C.ar    1  UNL1        0.0520
     12 C         141.6468  140.2715  163.8514 C.ar    1  UNL1        0.0037
     13 C         141.0349  139.0906  163.1576 C.ar    1  UNL1        0.0206
     14 C         141.4379  137.6996  163.5483 C.ar    1  UNL1        0.1013
     15 N         142.4527  137.4893  164.6327 N.ar    1  UNL1       -0.2167
     16 C         143.0646  138.6701  165.3265 C.ar    1  UNL1        0.2207
     17 F         144.0794  138.4599  166.4109 F       1  UNL1       -0.1835
     18 C         142.8185  140.7005  166.9524 C.3     1  UNL1        0.0635
     19 C         142.2936  141.6325  168.0040 C.ar    1  UNL1       -0.0015
     20 C         143.2311  142.2338  169.0088 C.ar    1  UNL1       -0.0011
     21 C         142.7062  143.1659  170.0604 C.ar    1  UNL1        0.0204
     22 C         141.2439  143.4966  170.1071 C.ar    1  UNL1        0.0988
     23 N         140.3064  142.8953  169.1023 N.ar    1  UNL1       -0.2442
     24 C         140.8313  141.9633  168.0508 C.ar    1  UNL1        0.0774
     25 C         139.8938  141.3620  167.0460 C.ar    1  UNL1        0.0173
     26 C         139.4647  142.1589  165.8499 C.ar    1  UNL1        0.0015
     27 C         138.5272  141.5576  164.8451 C.ar    1  UNL1       -0.0000
     28 C         138.0189  140.1594  165.0364 C.ar    1  UNL1        0.0039
     29 C         138.4481  139.3625  166.2325 C.ar    1  UNL1        0.0715
     30 C         139.3856  139.9638  167.2373 C.ar    1  UNL1        0.0053
     31 C         137.9398  137.9642  166.4238 C.3     1  UNL1        0.4186
     32 F         137.4316  136.5660  166.6151 F       1  UNL1       -0.1659
     33 F         138.8023  137.4955  165.2896 F       1  UNL1       -0.1659
     34 F         137.0774  138.4329  167.5580 F       1  UNL1       -0.1659
@<TRIPOS>BOND
     1     1     2    1
     2     2    18    1
     3    18    19    1
     4    19    20   ar
     5    20    21   ar
     6    21    22   ar
     7    22    23   ar
     8    23    24   ar
     9    24    25    1
    10    25    26   ar
    11    26    27   ar
    12    27    28   ar
    13    28    29   ar
    14    29    31    1
    15    31    32    1
    16    31    33    1
    17    31    34    1
    18    29    30   ar
    19     2     4    1
    20     4     5   ar
    21     5     6   ar
    22     6     7   ar
    23     7     8   ar
    24     8     9   ar
    25     9    10    1
    26     2    11    1
    27    11    12   ar
    28    12    13   ar
    29    13    14   ar
    30    14    15   ar
    31    15    16   ar
    32    16    17    1
    33    24    19   ar
    34    30    25   ar
    35     9     4   ar
    36    16    11   ar
    37     1     3    1
@<TRIPOS>MOLECULE
*****
 34 37 0 0 0
SMALL
GASTEIGER

@<TRIPOS>ATOM
      1 O         142.7807  141.8977  166.5932 O.3     1  UNL1       -0.3780
      2 C         142.7772  141.1044  165.3201 C.3     1  UNL1        0.1368
      3 H         142.0265  142.5078  166.5960 H       1  UNL1        0.2111
      4 C         142.9053  142.3727  164.5294 C.ar    1  UNL1        0.0520
      5 C         141.6789  143.1533  164.1599 C.ar    1  UNL1        0.0037
      6 C         141.8071  144.4215  163.3692 C.ar    1  UNL1        0.0206
      7 C         143.1616  144.9091  162.9481 C.ar    1  UNL1        0.1013
      8 N         144.3880  144.1286  163.3176 N.ar    1  UNL1       -0.2167
      9 C         144.2599  142.8604  164.1083 C.ar    1  UNL1        0.2207
     10 F         145.4864  142.0798  164.4778 F       1  UNL1       -0.1835
     11 C         142.7738  140.3112  164.0471 C.ar    1  UNL1        0.0520
     12 C         141.6317  140.4438  163.0838 C.ar    1  UNL1        0.0037
     13 C         141.6284  139.6505  161.8107 C.ar    1  UNL1        0.0206
     14 C         142.7671  138.7246  161.5009 C.ar    1  UNL1        0.1013
     15 N         143.9092  138.5919  162.4642 N.ar    1  UNL1       -0.2167
     16 C         143.9126  139.3852  163.7373 C.ar    1  UNL1        0.2207
     17 F         145.0547  139.2526  164.7006 F       1  UNL1       -0.1835
     18 C         142.6492  139.8362  166.1107 C.3     1  UNL1        0.0635
     19 C         141.9420  139.8452  167.4336 C.ar    1  UNL1       -0.0015
     20 C         142.7328  139.7924  168.7071 C.ar    1  UNL1       -0.0011
     21 C         142.0257  139.8014  170.0299 C.ar    1  UNL1        0.0204
     22 C         140.5278  139.8632  170.0792 C.ar    1  UNL1        0.0988
     23 N         139.7370  139.9160  168.8057 N.ar    1  UNL1       -0.2442
     24 C         140.4441  139.9070  167.4829 C.ar    1  UNL1        0.0774
     25 C         139.6533  139.9599  166.2094 C.ar    1  UNL1        0.0173
     26 C         139.3765  138.6990  165.4456 C.ar    1  UNL1        0.0015
     27 C         138.5857  138.7518  164.1720 C.ar    1  UNL1       -0.0000
     28 C         138.0717  140.0655  163.6623 C.ar    1  UNL1        0.0039
     29 C         138.3486  141.3264  164.4261 C.ar    1  UNL1        0.0715
     30 C         139.1394  141.2736  165.6996 C.ar    1  UNL1        0.0053
     31 C         137.8346  142.6403  163.9164 C.3     1  UNL1        0.4186
     32 F         137.3206  143.9540  163.4066 F       1  UNL1       -0.1659
     33 F         137.1893  141.9385  162.7583 F       1  UNL1       -0.1659
     34 F         138.4799  143.3420  165.0744 F       1  UNL1       -0.1659
@<TRIPOS>BOND
     1     1     2    1
     2     2    18    1
     3    18    19    1
     4    19    20   ar
     5    20    21   ar
     6    21    22   ar
     7    22    23   ar
     8    23    24   ar
     9    24    25    1
    10    25    26   ar
    11    26    27   ar
    12    27    28   ar
    13    28    29   ar
    14    29    31    1
    15    31    32    1
    16    31    33    1
    17    31    34    1
    18    29    30   ar
    19     2     4    1
    20     4     5   ar
    21     5     6   ar
    22     6     7   ar
    23     7     8   ar
    24     8     9   ar
    25     9    10    1
    26     2    11    1
    27    11    12   ar
    28    12    13   ar
    29    13    14   ar
    30    14    15   ar
    31    15    16   ar
    32    16    17    1
    33    24    19   ar
    34    30    25   ar
    35     9     4   ar
    36    16    11   ar
    37     1     3    1
@<TRIPOS>MOLECULE
*****
 34 37 0 0 0
SMALL
GASTEIGER

@<TRIPOS>ATOM
      1 O         140.9843  142.9156  166.5612 O.3     1  UNL1       -0.3780
      2 C         141.6591  142.9296  165.2217 C.3     1  UNL1        0.1368
      3 H         140.2577  142.2731  166.5505 H       1  UNL1        0.2111
      4 C         140.3706  143.3471  164.5769 C.ar    1  UNL1        0.0520
      5 C         140.2520  144.7033  163.9472 C.ar    1  UNL1        0.0037
      6 C         138.9636  145.1206  163.3024 C.ar    1  UNL1        0.0206
      7 C         137.7938  144.1818  163.2874 C.ar    1  UNL1        0.1013
      8 N         137.9124  142.8256  163.9172 N.ar    1  UNL1       -0.2167
      9 C         139.2009  142.4083  164.5619 C.ar    1  UNL1        0.2207
     10 F         139.3195  141.0520  165.1917 F       1  UNL1       -0.1835
     11 C         142.3339  142.9437  163.8822 C.ar    1  UNL1        0.0520
     12 C         142.0604  141.8497  162.8931 C.ar    1  UNL1        0.0037
     13 C         142.7353  141.8637  161.5535 C.ar    1  UNL1        0.0206
     14 C         143.6837  142.9718  161.2031 C.ar    1  UNL1        0.1013
     15 N         143.9572  144.0658  162.1922 N.ar    1  UNL1       -0.2167
     16 C         143.2824  144.0517  163.5318 C.ar    1  UNL1        0.2207
     17 F         143.5559  145.1457  164.5209 F       1  UNL1       -0.1835
     18 C         142.9475  142.5122  165.8665 C.3     1  UNL1        0.0635
     19 C         142.9266  141.6990  167.1268 C.ar    1  UNL1       -0.0015
     20 C         143.0256  142.3793  168.4600 C.ar    1  UNL1       -0.0011
     21 C         143.0046  141.5662  169.7203 C.ar    1  UNL1        0.0204
     22 C         142.8847  140.0728  169.6474 C.ar    1  UNL1        0.0988
     23 N         142.7857  139.3925  168.3142 N.ar    1  UNL1       -0.2442
     24 C         142.8067  140.2056  167.0539 C.ar    1  UNL1        0.0774
     25 C         142.7077  139.5254  165.7207 C.ar    1  UNL1        0.0173
     26 C         143.9213  139.4069  164.8472 C.ar    1  UNL1        0.0015
     27 C         143.8223  138.7266  163.5140 C.ar    1  UNL1       -0.0000
     28 C         142.5097  138.1648  163.0543 C.ar    1  UNL1        0.0039
     29 C         141.2961  138.2833  163.9277 C.ar    1  UNL1        0.0715
     30 C         141.3951  138.9636  165.2609 C.ar    1  UNL1        0.0053
     31 C         139.9834  137.7215  163.4680 C.3     1  UNL1        0.4186
     32 F         138.6707  137.1597  163.0083 F       1  UNL1       -0.1659
     33 F         140.3028  138.1276  162.0599 F       1  UNL1       -0.1659
     34 F         139.6640  137.3154  164.8762 F       1  UNL1       -0.1659
@<TRIPOS>BOND
     1     1     2    1
     2     2    18    1
     3    18    19    1
     4    19    20   ar
     5    20    21   ar
     6    21    22   ar
     7    22    23   ar
     8    23    24   ar
     9    24    25    1
    10    25    26   ar
    11    26    27   ar
    12    27    28   ar
    13    28    29   ar
    14    29    31    1
    15    31    32    1
    16    31    33    1
    17    31    34    1
    18    29    30   ar
    19     2     4    1
    20     4     5   ar
    21     5     6   ar
    22     6     7   ar
    23     7     8   ar
    24     8     9   ar
    25     9    10    1
    26     2    11    1
    27    11    12   ar
    28    12    13   ar
    29    13    14   ar
    30    14    15   ar
    31    15    16   ar
    32    16    17    1
    33    24    19   ar
    34    30    25   ar
    35     9     4   ar
    36    16    11   ar
    37     1     3    1
@<TRIPOS>MOLECULE
*****
 34 37 0 0 0
SMALL
GASTEIGER

@<TRIPOS>ATOM
      1 O         143.0532  144.5947  164.0561 O.3     1  UNL1       -0.3780
      2 C         141.8736  143.6702  163.9956 C.3     1  UNL1        0.1368
      3 H         142.7444  145.5048  164.1880 H       1  UNL1        0.2111
      4 C         141.3554  144.4096  162.7977 C.ar    1  UNL1        0.0520
      5 C         140.1857  145.3381  162.9376 C.ar    1  UNL1        0.0037
      6 C         139.6676  146.0775  161.7397 C.ar    1  UNL1        0.0206
      7 C         140.3193  145.8883  160.4020 C.ar    1  UNL1        0.1013
      8 N         141.4890  144.9599  160.2621 N.ar    1  UNL1       -0.2167
      9 C         142.0071  144.2205  161.4599 C.ar    1  UNL1        0.2207
     10 F         143.1769  143.2920  161.3201 F       1  UNL1       -0.1835
     11 C         140.6940  142.7457  163.9351 C.ar    1  UNL1        0.0520
     12 C         140.6306  141.6785  162.8830 C.ar    1  UNL1        0.0037
     13 C         139.4509  140.7540  162.8225 C.ar    1  UNL1        0.0206
     14 C         138.3346  140.8967  163.8142 C.ar    1  UNL1        0.1013
     15 N         138.3979  141.9639  164.8663 N.ar    1  UNL1       -0.2167
     16 C         139.5776  142.8884  164.9268 C.ar    1  UNL1        0.2207
     17 F         139.6409  143.9557  165.9789 F       1  UNL1       -0.1835
     18 C         142.3917  142.9308  165.1934 C.3     1  UNL1        0.0635
     19 C         143.2295  141.7001  165.0105 C.ar    1  UNL1       -0.0015
     20 C         144.3650  141.7046  164.0304 C.ar    1  UNL1       -0.0011
     21 C         145.2028  140.4739  163.8475 C.ar    1  UNL1        0.0204
     22 C         144.9051  139.2387  164.6448 C.ar    1  UNL1        0.0988
     23 N         143.7696  139.2342  165.6249 N.ar    1  UNL1       -0.2442
     24 C         142.9318  140.4649  165.8078 C.ar    1  UNL1        0.0774
     25 C         141.7964  140.4604  166.7880 C.ar    1  UNL1        0.0173
     26 C         141.8917  141.2656  168.0499 C.ar    1  UNL1        0.0015
     27 C         140.7562  141.2611  169.0300 C.ar    1  UNL1       -0.0000
     28 C         139.5254  140.4513  168.7483 C.ar    1  UNL1        0.0039
     29 C         139.4301  139.6461  167.4864 C.ar    1  UNL1        0.0715
     30 C         140.5656  139.6506  166.5062 C.ar    1  UNL1        0.0053
     31 C         138.1993  138.8363  167.2046 C.3     1  UNL1        0.4186
     32 F         136.9686  138.0265  166.9227 F       1  UNL1       -0.1659
     33 F         138.7315  138.5014  165.8427 F       1  UNL1       -0.1659
     34 F         137.6671  139.1711  168.5664 F       1  UNL1       -0.1659
@<TRIPOS>BOND
     1     1     2    1
     2     2    18    1
     3    18    19    1
     4    19    20   ar
     5    20    21   ar
     6    21    22   ar
     7    22    23   ar
     8    23    24   ar
     9    24    25    1
    10    25    26   ar
    11    26    27   ar
    12    27    28   ar
    13    28    29   ar
    14    29    31    1
    15    31    32    1
    16    31    33    1
    17    31    34    1
    18    29    30   ar
    19     2     4    1
    20     4     5   ar
    21     5     6   ar
    22     6     7   ar
    23     7     8   ar
    24     8     9   ar
    25     9    10    1
    26     2    11    1
    27    11    12   ar
    28    12    13   ar
    29    13    14   ar
    30    14    15   ar
    31    15    16   ar
    32    16    17    1
    33    24    19   ar
    34    30    25   ar
    35     9     4   ar
    36    16    11   ar
    37     1     3    1
@<TRIPOS>MOLECULE
*****
 34 37 0 0 0
SMALL
GASTEIGER

@<TRIPOS>ATOM
      1 O         139.9540  142.2983  167.0630 O.3     1  UNL1       -0.3780
      2 C         139.8613  141.4429  165.8344 C.3     1  UNL1        0.1368
      3 H         139.1480  142.8314  167.1474 H       1  UNL1        0.2111
      4 C         139.7496  142.6744  164.9853 C.ar    1  UNL1        0.0520
      5 C         140.9796  143.4586  164.6360 C.ar    1  UNL1        0.0037
      6 C         140.8679  144.6901  163.7869 C.ar    1  UNL1        0.0206
      7 C         139.5262  145.1373  163.2871 C.ar    1  UNL1        0.1013
      8 N         138.2962  144.3531  163.6364 N.ar    1  UNL1       -0.2167
      9 C         138.4079  143.1216  164.4855 C.ar    1  UNL1        0.2207
     10 F         137.1779  142.3373  164.8348 F       1  UNL1       -0.1835
     11 C         139.7686  140.5874  164.6058 C.ar    1  UNL1        0.0520
     12 C         140.8119  140.6989  163.5338 C.ar    1  UNL1        0.0037
     13 C         140.7192  139.8433  162.3052 C.ar    1  UNL1        0.0206
     14 C         139.5833  138.8764  162.1485 C.ar    1  UNL1        0.1013
     15 N         138.5400  138.7649  163.2205 N.ar    1  UNL1       -0.2167
     16 C         138.6326  139.6204  164.4491 C.ar    1  UNL1        0.2207
     17 F         137.5894  139.5089  165.5211 F       1  UNL1       -0.1835
     18 C         139.9730  140.2114  166.6835 C.3     1  UNL1        0.0635
     19 C         140.7290  140.2590  167.9782 C.ar    1  UNL1       -0.0015
     20 C         139.9851  140.3013  169.2800 C.ar    1  UNL1       -0.0011
     21 C         140.7411  140.3489  170.5746 C.ar    1  UNL1        0.0204
     22 C         142.2410  140.3542  170.5675 C.ar    1  UNL1        0.0988
     23 N         142.9850  140.3120  169.2656 N.ar    1  UNL1       -0.2442
     24 C         142.2290  140.2643  167.9710 C.ar    1  UNL1        0.0774
     25 C         142.9729  140.2221  166.6692 C.ar    1  UNL1        0.0173
     26 C         143.3546  138.9029  166.0660 C.ar    1  UNL1        0.0015
     27 C         144.0986  138.8606  164.7641 C.ar    1  UNL1       -0.0000
     28 C         144.4608  140.1375  164.0655 C.ar    1  UNL1        0.0039
     29 C         144.0791  141.4568  164.6687 C.ar    1  UNL1        0.0715
     30 C         143.3352  141.4990  165.9705 C.ar    1  UNL1        0.0053
     31 C         144.4414  142.7338  163.9701 C.3     1  UNL1        0.4186
     32 F         144.8036  144.0108  163.2714 F       1  UNL1       -0.1659
     33 F         143.8028  142.2263  162.7113 F       1  UNL1       -0.1659
     34 F         145.0800  143.2414  165.2288 F       1  UNL1       -0.1659
@<TRIPOS>BOND
     1     1     2    1
     2     2    18    1
     3    18    19    1
     4    19    20   ar
     5    20    21   ar
     6    21    22   ar
     7    22    23   ar
     8    23    24   ar
     9    24    25    1
    10    25    26   ar
    11    26    27   ar
    12    27    28   ar
    13    28    29   ar
    14    29    31    1
    15    31    32    1
    16    31    33    1
    17    31    34    1
    18    29    30   ar
    19     2     4    1
    20     4     5   ar
    21     5     6   ar
    22     6     7   ar
    23     7     8   ar
    24     8     9   ar
    25     9    10    1
    26     2    11    1
    27    11    12   ar
    28    12    13   ar
    29    13    14   ar
    30    14    15   ar
    31    15    16   ar
    32    16    17    1
    33    24    19   ar
    34    30    25   ar
    35     9     4   ar
    36    16    11   ar
    37     1     3    1
@<TRIPOS>MOLECULE
*****
 34 37 0 0 0
SMALL
GASTEIGER

@<TRIPOS>ATOM
      1 O         141.5326  139.8583  165.6143 O.3     1  UNL1       -0.3780
      2 C         140.5993  140.0340  164.4532 C.3     1  UNL1        0.1368
      3 H         142.2648  140.4902  165.5391 H       1  UNL1        0.2111
      4 C         141.7136  139.6984  163.5067 C.ar    1  UNL1        0.0520
      5 C         142.4598  140.7957  162.8074 C.ar    1  UNL1        0.0037
      6 C         143.5740  140.4600  161.8609 C.ar    1  UNL1        0.0206
      7 C         143.9420  139.0270  161.6138 C.ar    1  UNL1        0.1013
      8 N         143.1958  137.9297  162.3131 N.ar    1  UNL1       -0.2167
      9 C         142.0816  138.2654  163.2595 C.ar    1  UNL1        0.2207
     10 F         141.3354  137.1681  163.9589 F       1  UNL1       -0.1835
     11 C         139.6661  140.2098  163.2922 C.ar    1  UNL1        0.0520
     12 C         139.6924  141.4797  162.4943 C.ar    1  UNL1        0.0037
     13 C         138.7590  141.6554  161.3332 C.ar    1  UNL1        0.0206
     14 C         137.7994  140.5612  160.9700 C.ar    1  UNL1        0.1013
     15 N         137.7731  139.2913  161.7679 N.ar    1  UNL1       -0.2167
     16 C         138.7064  139.1155  162.9290 C.ar    1  UNL1        0.2207
     17 F         138.6801  137.8456  163.7269 F       1  UNL1       -0.1835
     18 C         139.4851  140.3697  165.3997 C.3     1  UNL1        0.0635
     19 C         139.7973  140.8962  166.7692 C.ar    1  UNL1       -0.0015
     20 C         139.6784  139.9966  167.9636 C.ar    1  UNL1       -0.0011
     21 C         139.9906  140.5231  169.3330 C.ar    1  UNL1        0.0204
     22 C         140.4215  141.9491  169.5080 C.ar    1  UNL1        0.0988
     23 N         140.5404  142.8487  168.3136 N.ar    1  UNL1       -0.2442
     24 C         140.2282  142.3222  166.9441 C.ar    1  UNL1        0.0774
     25 C         140.3471  143.2218  165.7497 C.ar    1  UNL1        0.0173
     26 C         139.1360  143.9328  165.2228 C.ar    1  UNL1        0.0015
     27 C         139.2548  144.8324  164.0284 C.ar    1  UNL1       -0.0000
     28 C         140.5847  145.0209  163.3609 C.ar    1  UNL1        0.0039
     29 C         141.7958  144.3099  163.8878 C.ar    1  UNL1        0.0715
     30 C         141.6770  143.4104  165.0822 C.ar    1  UNL1        0.0053
     31 C         143.1259  144.4985  163.2202 C.3     1  UNL1        0.4186
     32 F         144.4558  144.6870  162.5527 F       1  UNL1       -0.1659
     33 F         142.5461  144.0082  161.9266 F       1  UNL1       -0.1659
     34 F         143.7056  144.9888  164.5138 F       1  UNL1       -0.1659
@<TRIPOS>BOND
     1     1     2    1
     2     2    18    1
     3    18    19    1
     4    19    20   ar
     5    20    21   ar
     6    21    22   ar
     7    22    23   ar
     8    23    24   ar
     9    24    25    1
    10    25    26   ar
    11    26    27   ar
    12    27    28   ar
    13    28    29   ar
    14    29    31    1
    15    31    32    1
    16    31    33    1
    17    31    34    1
    18    29    30   ar
    19     2     4    1
    20     4     5   ar
    21     5     6   ar
    22     6     7   ar
    23     7     8   ar
    24     8     9   ar
    25     9    10    1
    26     2    11    1
    27    11    12   ar
    28    12    13   ar
    29    13    14   ar
    30    14    15   ar
    31    15    16   ar
    32    16    17    1
    33    24    19   ar
    34    30    25   ar
    35     9     4   ar
    36    16    11   ar
    37     1     3    1
