@<TRIPOS>MOLECULE
*****
 29 32 0 0 0
SMALL
GASTEIGER

@<TRIPOS>ATOM
      1 C         139.0357  139.2396  165.7684 C.3     1  UNL1        0.0752
      2 C         137.9796  138.4486  166.4820 C.3     1  UNL1        0.0851
      3 N         137.9890  138.8587  167.9248 N.3     1  UNL1       -0.2902
      4 C         139.0509  139.9031  168.1030 C.3     1  UNL1        0.1331
      5 C         139.6977  140.1385  166.7702 C.3     1  UNL1        0.0424
      6 H         138.1956  138.0512  168.5128 H       1  UNL1        0.1237
      7 C         139.4039  140.5913  169.3882 C.2     1  UNL1        0.2401
      8 O         138.4192  140.6186  170.5194 O.2     1  UNL1       -0.2734
      9 N         140.7416  141.2521  169.5422 N.am    1  UNL1       -0.2730
     10 C         141.2328  141.9748  170.7615 C.3     1  UNL1        0.0993
     11 C         142.6179  142.4756  170.4768 C.3     1  UNL1        0.0898
     12 C         142.9825  142.0626  169.0817 C.3     1  UNL1        0.2835
     13 F         144.2748  142.7630  169.3807 F       1  UNL1       -0.2024
     14 F         143.6174  141.7959  167.7491 F       1  UNL1       -0.2024
     15 C         141.8230  141.3064  168.5041 C.3     1  UNL1        0.1601
     16 N         140.0410  138.9640  161.3908 N.pl3   1  UNL1       -0.2899
     17 C         139.3802  137.8088  162.0828 C.3     1  UNL1        0.1095
     18 C         139.0451  137.9006  163.5419 C.3     1  UNL1        0.0939
     19 N         139.3708  139.1477  164.3092 N.3     1  UNL1       -0.2697
     20 C         140.0316  140.3030  163.6173 C.3     1  UNL1        0.0939
     21 C         140.3667  140.2111  162.1580 C.3     1  UNL1        0.1095
     22 C         141.7529  138.4592  159.5028 C.ar    1  UNL1        0.1000
     23 C         142.0880  138.3674  158.0436 C.ar    1  UNL1        0.0147
     24 C         141.0462  138.6883  157.0132 C.ar    1  UNL1        0.0215
     25 C         139.6694  139.1012  157.4420 C.ar    1  UNL1        0.1004
     26 N         139.3343  139.1930  158.9012 N.ar    1  UNL1       -0.2285
     27 C         140.3761  138.8721  159.9316 C.ar    1  UNL1        0.1414
     28 N         143.8364  137.8173  161.5636 N.1     1  UNL1       -0.1907
     29 C         142.7947  138.1383  160.5332 C.1     1  UNL1        0.1032
@<TRIPOS>BOND
     1    28    29    3
     2    29    22    1
     3    22    23   ar
     4    23    24   ar
     5    24    25   ar
     6    25    26   ar
     7    26    27   ar
     8    27    16    1
     9    16    17    1
    10    17    18    1
    11    18    19    1
    12     1    19    1
    13     1     2    1
    14     2     3    1
    15     3     4    1
    16     4     7    1
    17     7     8    2
    18     7     9   am
    19     9    10    1
    20    10    11    1
    21    11    12    1
    22    12    13    1
    23    12    14    1
    24    12    15    1
    25     4     5    1
    26    19    20    1
    27    20    21    1
    28    27    22   ar
    29    21    16    1
    30     5     1    1
    31    15     9    1
    32     3     6    1
@<TRIPOS>MOLECULE
*****
 29 32 0 0 0
SMALL
GASTEIGER

@<TRIPOS>ATOM
      1 C         139.1268  140.7083  164.8688 C.3     1  UNL1        0.0752
      2 C         138.4691  139.3833  165.1172 C.3     1  UNL1        0.0851
      3 N         138.5911  139.0721  166.5795 N.3     1  UNL1       -0.2902
      4 C         139.3243  140.2049  167.2348 C.3     1  UNL1        0.1331
      5 C         139.6554  141.2160  166.1775 C.3     1  UNL1        0.0424
      6 H         139.1110  138.2038  166.7064 H       1  UNL1        0.1237
      7 C         139.6663  140.3082  168.6916 C.2     1  UNL1        0.2401
      8 O         138.7200  139.7711  169.7242 O.2     1  UNL1       -0.2734
      9 N         140.9547  140.9486  169.1159 N.am    1  UNL1       -0.2730
     10 C         141.4297  141.1224  170.5281 C.3     1  UNL1        0.0993
     11 C         142.7628  141.8089  170.4875 C.3     1  UNL1        0.0898
     12 C         143.1117  142.0593  169.0503 C.3     1  UNL1        0.2835
     13 F         144.3564  142.6701  169.6225 F       1  UNL1       -0.2024
     14 F         143.7207  142.4374  167.7327 F       1  UNL1       -0.2024
     15 C         141.9942  141.5276  168.2026 C.3     1  UNL1        0.1601
     16 N         139.4564  142.7939  160.8949 N.pl3   1  UNL1       -0.2899
     17 C         138.1982  142.9137  161.7027 C.3     1  UNL1        0.1095
     18 C         138.0883  142.2185  163.0273 C.3     1  UNL1        0.0939
     19 N         139.2367  141.4035  163.5442 N.3     1  UNL1       -0.2697
     20 C         140.4949  141.2837  162.7364 C.3     1  UNL1        0.0939
     21 C         140.6047  141.9789  161.4117 C.3     1  UNL1        0.1095
     22 C         139.0202  142.8383  158.3341 C.ar    1  UNL1        0.1000
     23 C         139.1300  143.5335  157.0095 C.ar    1  UNL1        0.0147
     24 C         139.7860  144.8796  156.9211 C.ar    1  UNL1        0.0215
     25 C         140.3320  145.5305  158.1573 C.ar    1  UNL1        0.1004
     26 N         140.2222  144.8352  159.4818 N.ar    1  UNL1       -0.2285
     27 C         139.5662  143.4891  159.5702 C.ar    1  UNL1        0.1414
     28 N         137.7084  140.1461  158.5109 N.1     1  UNL1       -0.1907
     29 C         138.3643  141.4922  158.4225 C.1     1  UNL1        0.1032
@<TRIPOS>BOND
     1    28    29    3
     2    29    22    1
     3    22    23   ar
     4    23    24   ar
     5    24    25   ar
     6    25    26   ar
     7    26    27   ar
     8    27    16    1
     9    16    17    1
    10    17    18    1
    11    18    19    1
    12     1    19    1
    13     1     2    1
    14     2     3    1
    15     3     4    1
    16     4     7    1
    17     7     8    2
    18     7     9   am
    19     9    10    1
    20    10    11    1
    21    11    12    1
    22    12    13    1
    23    12    14    1
    24    12    15    1
    25     4     5    1
    26    19    20    1
    27    20    21    1
    28    27    22   ar
    29    21    16    1
    30     5     1    1
    31    15     9    1
    32     3     6    1
@<TRIPOS>MOLECULE
*****
 29 32 0 0 0
SMALL
GASTEIGER

@<TRIPOS>ATOM
      1 C         142.7125  138.9016  160.7150 C.3     1  UNL1        0.0752
      2 C         143.8185  139.5581  159.9433 C.3     1  UNL1        0.0851
      3 N         143.7058  139.1243  158.5118 N.3     1  UNL1       -0.2902
      4 C         142.5301  138.1996  158.3989 C.3     1  UNL1        0.1331
      5 C         141.9162  138.0620  159.7605 C.3     1  UNL1        0.0424
      6 H         144.5569  138.6382  158.2294 H       1  UNL1        0.1237
      7 C         142.0522  137.5302  157.1445 C.2     1  UNL1        0.2401
      8 O         141.1939  138.2840  156.1723 O.2     1  UNL1       -0.2734
      9 N         142.4327  136.1069  156.8623 N.am    1  UNL1       -0.2730
     10 C         142.0321  135.3098  155.6564 C.3     1  UNL1        0.0993
     11 C         142.6324  133.9411  155.7853 C.3     1  UNL1        0.0898
     12 C         143.4038  133.8924  157.0708 C.3     1  UNL1        0.2835
     13 F         143.7015  132.4821  156.6558 F       1  UNL1       -0.2024
     14 F         144.2374  133.5489  158.2696 F       1  UNL1       -0.2024
     15 C         143.2804  135.2310  157.7365 C.3     1  UNL1        0.1601
     16 N         141.9220  139.3688  165.1204 N.pl3   1  UNL1       -0.2899
     17 C         142.4537  140.5254  164.3270 C.3     1  UNL1        0.1095
     18 C         142.7172  140.3697  162.8586 C.3     1  UNL1        0.0939
     19 N         142.4490  139.0573  162.1835 N.3     1  UNL1       -0.2697
     20 C         141.9174  137.9006  162.9768 C.3     1  UNL1        0.0939
     21 C         141.6539  138.0564  164.4453 C.3     1  UNL1        0.1095
     22 C         140.2978  139.9363  167.0671 C.ar    1  UNL1        0.1000
     23 C         140.0344  140.0920  168.5356 C.ar    1  UNL1        0.0147
     24 C         141.1317  139.8360  169.5257 C.ar    1  UNL1        0.0215
     25 C         142.4924  139.4242  169.0474 C.ar    1  UNL1        0.1004
     26 N         142.7559  139.2685  167.5790 N.ar    1  UNL1       -0.2285
     27 C         141.6585  139.5245  166.5889 C.ar    1  UNL1        0.1414
     28 N         138.1032  140.4483  165.0869 N.1     1  UNL1       -0.1907
     29 C         139.2005  140.1923  166.0770 C.1     1  UNL1        0.1032
@<TRIPOS>BOND
     1    28    29    3
     2    29    22    1
     3    22    23   ar
     4    23    24   ar
     5    24    25   ar
     6    25    26   ar
     7    26    27   ar
     8    27    16    1
     9    16    17    1
    10    17    18    1
    11    18    19    1
    12     1    19    1
    13     1     2    1
    14     2     3    1
    15     3     4    1
    16     4     7    1
    17     7     8    2
    18     7     9   am
    19     9    10    1
    20    10    11    1
    21    11    12    1
    22    12    13    1
    23    12    14    1
    24    12    15    1
    25     4     5    1
    26    19    20    1
    27    20    21    1
    28    27    22   ar
    29    21    16    1
    30     5     1    1
    31    15     9    1
    32     3     6    1
@<TRIPOS>MOLECULE
*****
 29 32 0 0 0
SMALL
GASTEIGER

@<TRIPOS>ATOM
      1 C         142.9531  139.1562  159.9832 C.3     1  UNL1        0.0752
      2 C         143.8363  139.7959  158.9533 C.3     1  UNL1        0.0851
      3 N         143.5347  139.1638  157.6269 N.3     1  UNL1       -0.2902
      4 C         142.4651  138.1333  157.8370 C.3     1  UNL1        0.1331
      5 C         142.1056  138.1286  159.2932 C.3     1  UNL1        0.0424
      6 H         144.3749  138.7200  157.2560 H       1  UNL1        0.1237
      7 C         141.8610  137.2608  156.7769 C.2     1  UNL1        0.2401
      8 O         140.8372  137.8234  155.8360 O.2     1  UNL1       -0.2734
      9 N         142.2808  135.8257  156.6577 N.am    1  UNL1       -0.2730
     10 C         141.7671  134.8374  155.6530 C.3     1  UNL1        0.0993
     11 C         142.4567  133.5277  155.8967 C.3     1  UNL1        0.0898
     12 C         143.3966  133.7067  157.0520 C.3     1  UNL1        0.2835
     13 F         143.7158  132.2607  156.8127 F       1  UNL1       -0.2024
     14 F         144.4031  133.5833  158.1572 F       1  UNL1       -0.2024
     15 C         143.2878  135.1269  157.5223 C.3     1  UNL1        0.1601
     16 N         142.8618  140.1458  164.3721 N.pl3   1  UNL1       -0.2899
     17 C         141.6401  140.3618  163.5290 C.3     1  UNL1        0.1095
     18 C         141.6705  140.0319  162.0660 C.3     1  UNL1        0.0939
     19 N         142.9227  139.4860  161.4461 N.3     1  UNL1       -0.2697
     20 C         144.1443  139.2701  162.2892 C.3     1  UNL1        0.0939
     21 C         144.1139  139.5999  163.7522 C.3     1  UNL1        0.1095
     22 C         143.1490  141.8670  166.2970 C.ar    1  UNL1        0.1000
     23 C         143.1185  142.1968  167.7599 C.ar    1  UNL1        0.0147
     24 C         142.7703  141.1354  168.7610 C.ar    1  UNL1        0.0215
     25 C         142.4527  139.7441  168.2991 C.ar    1  UNL1        0.1004
     26 N         142.4831  139.4143  166.8361 N.ar    1  UNL1       -0.2285
     27 C         142.8313  140.4757  165.8351 C.ar    1  UNL1        0.1414
     28 N         143.8453  143.9899  164.2948 N.1     1  UNL1       -0.1907
     29 C         143.4972  142.9284  165.2959 C.1     1  UNL1        0.1032
@<TRIPOS>BOND
     1    28    29    3
     2    29    22    1
     3    22    23   ar
     4    23    24   ar
     5    24    25   ar
     6    25    26   ar
     7    26    27   ar
     8    27    16    1
     9    16    17    1
    10    17    18    1
    11    18    19    1
    12     1    19    1
    13     1     2    1
    14     2     3    1
    15     3     4    1
    16     4     7    1
    17     7     8    2
    18     7     9   am
    19     9    10    1
    20    10    11    1
    21    11    12    1
    22    12    13    1
    23    12    14    1
    24    12    15    1
    25     4     5    1
    26    19    20    1
    27    20    21    1
    28    27    22   ar
    29    21    16    1
    30     5     1    1
    31    15     9    1
    32     3     6    1
@<TRIPOS>MOLECULE
*****
 29 32 0 0 0
SMALL
GASTEIGER

@<TRIPOS>ATOM
      1 C         138.8207  139.6668  163.2723 C.3     1  UNL1        0.0752
      2 C         139.1043  138.1945  163.3160 C.3     1  UNL1        0.0851
      3 N         138.8661  137.7180  164.7182 N.3     1  UNL1       -0.2902
      4 C         138.4354  138.8958  165.5412 C.3     1  UNL1        0.1331
      5 C         138.4074  140.1002  164.6476 C.3     1  UNL1        0.0424
      6 H         139.7259  137.3243  165.1007 H       1  UNL1        0.1237
      7 C         138.0929  138.8732  167.0014 C.2     1  UNL1        0.2401
      8 O         137.0212  137.9530  167.5062 O.2     1  UNL1       -0.2734
      9 N         138.8221  139.7707  167.9568 N.am    1  UNL1       -0.2730
     10 C         138.5901  139.8578  169.4362 C.3     1  UNL1        0.0993
     11 C         139.5360  140.8796  169.9943 C.3     1  UNL1        0.0898
     12 C         140.3525  141.4239  168.8598 C.3     1  UNL1        0.2835
     13 F         140.9923  142.2596  169.9285 F       1  UNL1       -0.2024
     14 F         141.3027  142.1429  167.9487 F       1  UNL1       -0.2024
     15 C         139.9113  140.7385  167.6005 C.3     1  UNL1        0.1601
     16 N         139.1521  142.3179  159.6513 N.pl3   1  UNL1       -0.2899
     17 C         138.1704  142.6491  160.7361 C.3     1  UNL1        0.1095
     18 C         138.0599  141.7654  161.9430 C.3     1  UNL1        0.0939
     19 N         138.9312  140.5505  162.0654 N.3     1  UNL1       -0.2697
     20 C         139.9129  140.2193  160.9806 C.3     1  UNL1        0.0939
     21 C         140.0233  141.1030  159.7736 C.3     1  UNL1        0.1095
     22 C         138.4596  142.8958  157.2148 C.ar    1  UNL1        0.1000
     23 C         138.5700  143.7795  156.0079 C.ar    1  UNL1        0.0147
     24 C         139.4834  144.9692  156.0304 C.ar    1  UNL1        0.0215
     25 C         140.2863  145.2751  157.2599 C.ar    1  UNL1        0.1004
     26 N         140.1759  144.3913  158.4668 N.ar    1  UNL1       -0.2285
     27 C         139.2625  143.2017  158.4443 C.ar    1  UNL1        0.1414
     28 N         136.6328  140.5165  157.1697 N.1     1  UNL1       -0.1907
     29 C         137.5462  141.7062  157.1923 C.1     1  UNL1        0.1032
@<TRIPOS>BOND
     1    28    29    3
     2    29    22    1
     3    22    23   ar
     4    23    24   ar
     5    24    25   ar
     6    25    26   ar
     7    26    27   ar
     8    27    16    1
     9    16    17    1
    10    17    18    1
    11    18    19    1
    12     1    19    1
    13     1     2    1
    14     2     3    1
    15     3     4    1
    16     4     7    1
    17     7     8    2
    18     7     9   am
    19     9    10    1
    20    10    11    1
    21    11    12    1
    22    12    13    1
    23    12    14    1
    24    12    15    1
    25     4     5    1
    26    19    20    1
    27    20    21    1
    28    27    22   ar
    29    21    16    1
    30     5     1    1
    31    15     9    1
    32     3     6    1
@<TRIPOS>MOLECULE
*****
 29 32 0 0 0
SMALL
GASTEIGER

@<TRIPOS>ATOM
      1 C         140.8731  144.5044  162.4662 C.3     1  UNL1        0.0752
      2 C         139.8469  145.5852  162.2973 C.3     1  UNL1        0.0851
      3 N         139.8309  145.9875  160.8523 N.3     1  UNL1       -0.2902
      4 C         140.8473  145.1552  160.1282 C.3     1  UNL1        0.1331
      5 C         141.4914  144.2386  161.1256 C.3     1  UNL1        0.0424
      6 H         140.0675  146.9759  160.7655 H       1  UNL1        0.1237
      7 C         141.1640  145.2270  158.6637 C.2     1  UNL1        0.2401
      8 O         142.2934  146.0887  158.1820 O.2     1  UNL1       -0.2734
      9 N         140.3513  144.4371  157.6811 N.am    1  UNL1       -0.2730
     10 C         140.5491  144.4088  156.1944 C.3     1  UNL1        0.0993
     11 C         139.5182  143.4910  155.6071 C.3     1  UNL1        0.0898
     12 C         138.6833  142.9521  156.7307 C.3     1  UNL1        0.2835
     13 F         137.9624  142.2229  155.6360 F       1  UNL1       -0.2024
     14 F         137.6978  142.2607  157.6255 F       1  UNL1       -0.2024
     15 C         139.1982  143.5368  158.0126 C.3     1  UNL1        0.1601
     16 N         141.9141  142.4242  166.3184 N.pl3   1  UNL1       -0.2899
     17 C         142.9588  142.6041  165.2570 C.3     1  UNL1        0.1095
     18 C         142.6118  143.2974  163.9730 C.3     1  UNL1        0.0939
     19 N         141.2201  143.8110  163.7502 N.3     1  UNL1       -0.2697
     20 C         140.1755  143.6311  164.8116 C.3     1  UNL1        0.0939
     21 C         140.5225  142.9377  166.0957 C.3     1  UNL1        0.1095
     22 C         142.1543  140.2379  167.7013 C.ar    1  UNL1        0.1000
     23 C         142.5013  139.5446  168.9854 C.ar    1  UNL1        0.0147
     24 C         142.9553  140.3442  170.1705 C.ar    1  UNL1        0.0215
     25 C         143.0622  141.8371  170.0717 C.ar    1  UNL1        0.1004
     26 N         142.7152  142.5304  168.7876 N.ar    1  UNL1       -0.2285
     27 C         142.2612  141.7308  167.6025 C.ar    1  UNL1        0.1414
     28 N         141.2464  138.6388  165.3310 N.1     1  UNL1       -0.1907
     29 C         141.7003  139.4384  166.5162 C.1     1  UNL1        0.1032
@<TRIPOS>BOND
     1    28    29    3
     2    29    22    1
     3    22    23   ar
     4    23    24   ar
     5    24    25   ar
     6    25    26   ar
     7    26    27   ar
     8    27    16    1
     9    16    17    1
    10    17    18    1
    11    18    19    1
    12     1    19    1
    13     1     2    1
    14     2     3    1
    15     3     4    1
    16     4     7    1
    17     7     8    2
    18     7     9   am
    19     9    10    1
    20    10    11    1
    21    11    12    1
    22    12    13    1
    23    12    14    1
    24    12    15    1
    25     4     5    1
    26    19    20    1
    27    20    21    1
    28    27    22   ar
    29    21    16    1
    30     5     1    1
    31    15     9    1
    32     3     6    1
@<TRIPOS>MOLECULE
*****
 29 32 0 0 0
SMALL
GASTEIGER

@<TRIPOS>ATOM
      1 C         140.7648  143.6760  160.1743 C.3     1  UNL1        0.0752
      2 C         141.5547  144.9250  160.4319 C.3     1  UNL1        0.0851
      3 N         141.7676  145.6178  159.1186 N.3     1  UNL1       -0.2902
      4 C         141.1094  144.7970  158.0494 C.3     1  UNL1        0.1331
      5 C         140.4897  143.5970  158.7019 C.3     1  UNL1        0.0424
      6 H         142.7664  145.6982  158.9277 H       1  UNL1        0.1237
      7 C         141.0767  145.1197  156.5849 C.2     1  UNL1        0.2401
      8 O         141.8136  144.2511  155.6089 O.2     1  UNL1       -0.2734
      9 N         140.3071  146.3109  156.0964 N.am    1  UNL1       -0.2730
     10 C         140.1837  146.7561  154.6693 C.3     1  UNL1        0.0993
     11 C         139.3260  147.9864  154.6401 C.3     1  UNL1        0.0898
     12 C         138.9195  148.3016  156.0491 C.3     1  UNL1        0.2835
     13 F         138.1966  149.4533  155.4160 F       1  UNL1       -0.2024
     14 F         138.3618  148.8575  157.3258 F       1  UNL1       -0.2024
     15 C         139.5258  147.2661  156.9492 C.3     1  UNL1        0.1601
     16 N         139.4516  140.6906  163.2748 N.pl3   1  UNL1       -0.2899
     17 C         140.7216  141.4647  163.4695 C.3     1  UNL1        0.1095
     18 C         141.1593  142.4598  162.4361 C.3     1  UNL1        0.0939
     19 N         140.3271  142.6809  161.2078 N.3     1  UNL1       -0.2697
     20 C         139.0571  141.9068  161.0131 C.3     1  UNL1        0.0939
     21 C         138.6193  140.9117  162.0466 C.3     1  UNL1        0.1095
     22 C         139.4239  138.2578  164.1862 C.ar    1  UNL1        0.1000
     23 C         138.9861  137.2628  165.2197 C.ar    1  UNL1        0.0147
     24 C         138.1383  137.7053  166.3753 C.ar    1  UNL1        0.0215
     25 C         137.7283  139.1430  166.4974 C.ar    1  UNL1        0.1004
     26 N         138.1660  140.1381  165.4639 N.ar    1  UNL1       -0.2285
     27 C         139.0138  139.6955  164.3083 C.ar    1  UNL1        0.1414
     28 N         141.1195  137.3727  161.8751 N.1     1  UNL1       -0.1907
     29 C         140.2717  137.8152  163.0307 C.1     1  UNL1        0.1032
@<TRIPOS>BOND
     1    28    29    3
     2    29    22    1
     3    22    23   ar
     4    23    24   ar
     5    24    25   ar
     6    25    26   ar
     7    26    27   ar
     8    27    16    1
     9    16    17    1
    10    17    18    1
    11    18    19    1
    12     1    19    1
    13     1     2    1
    14     2     3    1
    15     3     4    1
    16     4     7    1
    17     7     8    2
    18     7     9   am
    19     9    10    1
    20    10    11    1
    21    11    12    1
    22    12    13    1
    23    12    14    1
    24    12    15    1
    25     4     5    1
    26    19    20    1
    27    20    21    1
    28    27    22   ar
    29    21    16    1
    30     5     1    1
    31    15     9    1
    32     3     6    1
@<TRIPOS>MOLECULE
*****
 29 32 0 0 0
SMALL
GASTEIGER

@<TRIPOS>ATOM
      1 C         140.6954  144.7618  162.1323 C.3     1  UNL1        0.0752
      2 C         140.0395  146.0312  161.6759 C.3     1  UNL1        0.0851
      3 N         140.4077  146.2523  160.2387 N.3     1  UNL1       -0.2902
      4 C         141.2912  145.1196  159.8068 C.3     1  UNL1        0.1331
      5 C         141.4690  144.1984  160.9772 C.3     1  UNL1        0.0424
      6 H         140.9064  147.1368  160.1412 H       1  UNL1        0.1237
      7 C         141.8914  144.9396  158.4440 C.2     1  UNL1        0.2401
      8 O         143.1376  144.1220  158.2753 O.2     1  UNL1       -0.2734
      9 N         141.2454  145.5774  157.2499 N.am    1  UNL1       -0.2730
     10 C         141.7282  145.4862  155.8326 C.3     1  UNL1        0.0993
     11 C         140.7844  146.2708  154.9701 C.3     1  UNL1        0.0898
     12 C         139.7184  146.8467  155.8543 C.3     1  UNL1        0.2835
     13 F         139.1873  147.4207  154.5743 F       1  UNL1       -0.2024
     14 F         138.5413  147.5427  156.4710 F       1  UNL1       -0.2024
     15 C         140.0033  146.4182  157.2633 C.3     1  UNL1        0.1601
     16 N         140.3952  142.9601  166.2449 N.pl3   1  UNL1       -0.2899
     17 C         139.2434  143.7383  165.6811 C.3     1  UNL1        0.1095
     18 C         139.3435  144.3388  164.3103 C.3     1  UNL1        0.0939
     19 N         140.5954  144.1612  163.5032 N.3     1  UNL1       -0.2697
     20 C         141.7471  143.3830  164.0670 C.3     1  UNL1        0.0939
     21 C         141.6470  142.7824  165.4379 C.3     1  UNL1        0.1095
     22 C         139.9113  140.9185  167.7772 C.ar    1  UNL1        0.1000
     23 C         139.8112  140.3180  169.1480 C.ar    1  UNL1        0.0147
     24 C         140.0948  141.1585  170.3576 C.ar    1  UNL1        0.0215
     25 C         140.4786  142.5995  170.1963 C.ar    1  UNL1        0.1004
     26 N         140.5787  143.2000  168.8254 N.ar    1  UNL1       -0.2285
     27 C         140.2950  142.3595  167.6159 C.ar    1  UNL1        0.1414
     28 N         139.3440  139.2374  165.3581 N.1     1  UNL1       -0.1907
     29 C         139.6276  140.0779  166.5676 C.1     1  UNL1        0.1032
@<TRIPOS>BOND
     1    28    29    3
     2    29    22    1
     3    22    23   ar
     4    23    24   ar
     5    24    25   ar
     6    25    26   ar
     7    26    27   ar
     8    27    16    1
     9    16    17    1
    10    17    18    1
    11    18    19    1
    12     1    19    1
    13     1     2    1
    14     2     3    1
    15     3     4    1
    16     4     7    1
    17     7     8    2
    18     7     9   am
    19     9    10    1
    20    10    11    1
    21    11    12    1
    22    12    13    1
    23    12    14    1
    24    12    15    1
    25     4     5    1
    26    19    20    1
    27    20    21    1
    28    27    22   ar
    29    21    16    1
    30     5     1    1
    31    15     9    1
    32     3     6    1
@<TRIPOS>MOLECULE
*****
 29 32 0 0 0
SMALL
GASTEIGER

@<TRIPOS>ATOM
      1 C         143.0531  138.9529  157.5828 C.3     1  UNL1        0.0752
      2 C         143.6266  139.1387  156.2093 C.3     1  UNL1        0.0851
      3 N         143.2306  137.9549  155.3776 N.3     1  UNL1       -0.2902
      4 C         142.4123  137.0374  156.2371 C.3     1  UNL1        0.1331
      5 C         142.3026  137.6543  157.6000 C.3     1  UNL1        0.0424
      6 H         144.0646  137.4686  155.0484 H       1  UNL1        0.1237
      7 C         141.8096  135.7323  155.8089 C.2     1  UNL1        0.2401
      8 O         140.5980  135.7200  154.9247 O.2     1  UNL1       -0.2734
      9 N         142.4186  134.4395  156.2649 N.am    1  UNL1       -0.2730
     10 C         141.9290  133.0643  155.9198 C.3     1  UNL1        0.0993
     11 C         142.8319  132.0698  156.5877 C.3     1  UNL1        0.0898
     12 C         143.8794  132.8304  157.3454 C.3     1  UNL1        0.2835
     13 F         144.3755  131.4653  157.7196 F       1  UNL1       -0.2024
     14 F         145.0306  133.3057  158.1813 F       1  UNL1       -0.2024
     15 C         143.6240  134.2950  157.1459 C.3     1  UNL1        0.1601
     16 N         143.5047  141.7930  161.0441 N.pl3   1  UNL1       -0.2899
     17 C         144.3359  141.9775  159.8092 C.3     1  UNL1        0.1095
     18 C         144.1853  141.0308  158.6554 C.3     1  UNL1        0.0939
     19 N         143.2036  139.8996  158.7366 N.3     1  UNL1       -0.2697
     20 C         142.3724  139.7150  159.9715 C.3     1  UNL1        0.0939
     21 C         142.5230  140.6618  161.1253 C.3     1  UNL1        0.1095
     22 C         144.1744  142.2415  163.5140 C.ar    1  UNL1        0.1000
     23 C         144.3249  143.1882  164.6677 C.ar    1  UNL1        0.0147
     24 C         143.9563  144.6331  164.5052 C.ar    1  UNL1        0.0215
     25 C         143.4371  145.1313  163.1891 C.ar    1  UNL1        0.1004
     26 N         143.2866  144.1846  162.0354 N.ar    1  UNL1       -0.2285
     27 C         143.6552  142.7397  162.1979 C.ar    1  UNL1        0.1414
     28 N         144.9117  139.3517  163.8389 N.1     1  UNL1       -0.1907
     29 C         144.5431  140.7966  163.6764 C.1     1  UNL1        0.1032
@<TRIPOS>BOND
     1    28    29    3
     2    29    22    1
     3    22    23   ar
     4    23    24   ar
     5    24    25   ar
     6    25    26   ar
     7    26    27   ar
     8    27    16    1
     9    16    17    1
    10    17    18    1
    11    18    19    1
    12     1    19    1
    13     1     2    1
    14     2     3    1
    15     3     4    1
    16     4     7    1
    17     7     8    2
    18     7     9   am
    19     9    10    1
    20    10    11    1
    21    11    12    1
    22    12    13    1
    23    12    14    1
    24    12    15    1
    25     4     5    1
    26    19    20    1
    27    20    21    1
    28    27    22   ar
    29    21    16    1
    30     5     1    1
    31    15     9    1
    32     3     6    1
