@<TRIPOS>MOLECULE
*****
 35 39 0 0 0
SMALL
GASTEIGER

@<TRIPOS>ATOM
      1 C         143.2305  138.4805  160.2071 C.3     1  UNL1        0.0730
      2 N         142.4042  138.6074  161.4526 N.3     1  UNL1       -0.2720
      3 C         141.1237  137.8262  161.4664 C.3     1  UNL1        0.0768
      4 C         140.0904  137.7434  162.5506 C.3     1  UNL1        0.0433
      5 C         140.0824  138.4212  163.8886 C.ar    1  UNL1       -0.0247
      6 C         138.8551  138.0671  164.6751 C.ar    1  UNL1       -0.0045
      7 C         138.6512  138.6410  166.0458 C.ar    1  UNL1        0.0013
      8 C         139.6745  139.5691  166.6303 C.ar    1  UNL1        0.0206
      9 C         140.9018  139.9232  165.8438 C.ar    1  UNL1       -0.0029
     10 C         141.1057  139.3493  164.4731 C.ar    1  UNL1       -0.0246
     11 C         142.3898  139.8288  163.8637 C.3     1  UNL1        0.0433
     12 C         142.9676  139.4985  162.5194 C.3     1  UNL1        0.0768
     13 C         139.4705  140.1430  168.0010 C.ar    1  UNL1        0.1227
     14 C         140.1397  141.3667  168.5530 C.ar    1  UNL1        0.0580
     15 C         139.6443  141.5739  169.9536 C.ar    1  UNL1        0.1548
     16 C         140.0527  142.6823  170.8782 C.3     1  UNL1        0.0754
     17 O         138.6691  140.4783  170.2673 O.2     1  UNL1       -0.3578
     18 N         138.5616  139.5939  169.0605 N.ar    1  UNL1       -0.0774
     19 C         142.6014  137.9914  158.9363 C.3     1  UNL1        0.0294
     20 C         142.6147  138.8570  157.7112 C.3     1  UNL1        0.0666
     21 S         141.3423  139.4812  157.2201 S.3     1  UNL1       -0.0756
     22 C         138.9955  140.8080  160.0125 C.ar    1  UNL1        0.1683
     23 N         138.1093  139.7989  159.3443 N.ar    1  UNL1       -0.1282
     24 N         138.8806  139.1791  158.2170 N.ar    1  UNL1       -0.1221
     25 C         140.2434  139.8051  158.1884 C.ar    1  UNL1        0.1932
     26 N         140.3144  140.8118  159.2981 N.ar    1  UNL1       -0.2884
     27 C         141.4968  141.6714  159.6344 C.3     1  UNL1        0.1340
     28 C         137.8910  143.3734  163.5408 C.ar    1  UNL1        0.2250
     29 C         137.9562  141.8821  163.6889 C.ar    1  UNL1        0.0578
     30 C         138.3244  141.0270  162.5128 C.ar    1  UNL1        0.0094
     31 C         138.6274  141.6631  161.1886 C.ar    1  UNL1        0.0553
     32 C         138.5621  143.1543  161.0405 C.ar    1  UNL1        0.1051
     33 N         138.1940  144.0095  162.2166 N.ar    1  UNL1       -0.2100
     34 C         138.5956  144.9101  165.5137 C.3     1  UNL1        0.2542
     35 O         137.5229  144.2285  164.7169 O.3     1  UNL1       -0.4561
@<TRIPOS>BOND
     1    34    35    1
     2    35    28    1
     3    28    29   ar
     4    29    30   ar
     5    30    31   ar
     6    31    22    1
     7    22    23   ar
     8    23    24   ar
     9    24    25   ar
    10    25    21    1
    11    21    20    1
    12    20    19    1
    13    19     1    1
    14     1     2    1
    15     2     3    1
    16     3     4    1
    17     4     5    1
    18     5     6   ar
    19     6     7   ar
    20     7     8   ar
    21     8    13    1
    22    13    14   ar
    23    14    15   ar
    24    15    16    1
    25    15    17   ar
    26    17    18   ar
    27     8     9   ar
    28     9    10   ar
    29    10    11    1
    30    11    12    1
    31    25    26   ar
    32    26    27    1
    33    31    32   ar
    34    32    33   ar
    35    33    28   ar
    36    26    22   ar
    37    12     2    1
    38    10     5   ar
    39    18    13   ar
@<TRIPOS>MOLECULE
*****
 35 39 0 0 0
SMALL
GASTEIGER

@<TRIPOS>ATOM
      1 C         141.4901  145.4848  158.9997 C.3     1  UNL1        0.0730
      2 N         141.1806  145.0912  160.4137 N.3     1  UNL1       -0.2720
      3 C         139.9789  145.7495  161.0242 C.3     1  UNL1        0.0768
      4 C         139.4134  145.5706  162.4021 C.3     1  UNL1        0.0433
      5 C         139.9101  144.6893  163.5095 C.ar    1  UNL1       -0.0247
      6 C         139.0496  144.8086  164.7325 C.ar    1  UNL1       -0.0045
      7 C         139.3739  144.0078  165.9587 C.ar    1  UNL1        0.0013
      8 C         140.5586  143.0877  165.9621 C.ar    1  UNL1        0.0206
      9 C         141.4190  142.9685  164.7391 C.ar    1  UNL1       -0.0029
     10 C         141.0948  143.7693  163.5129 C.ar    1  UNL1       -0.0246
     11 C         142.0754  143.5033  162.4095 C.3     1  UNL1        0.0433
     12 C         142.1136  144.0917  161.0302 C.3     1  UNL1        0.0768
     13 C         140.8828  142.2870  167.1883 C.ar    1  UNL1        0.1227
     14 C         141.6500  140.9985  167.2225 C.ar    1  UNL1        0.0580
     15 C         141.7381  140.5493  168.6509 C.ar    1  UNL1        0.1548
     16 C         142.4194  139.3072  169.1441 C.3     1  UNL1        0.0754
     17 O         141.0255  141.5602  169.4995 O.2     1  UNL1       -0.3578
     18 N         140.4969  142.6342  168.5956 N.ar    1  UNL1       -0.0774
     19 C         142.0327  144.4679  158.0398 C.3     1  UNL1        0.0294
     20 C         141.1004  143.7187  157.1345 C.3     1  UNL1        0.0666
     21 S         140.5934  142.3648  157.5343 S.3     1  UNL1       -0.0756
     22 C         138.9417  141.3811  160.9062 C.ar    1  UNL1        0.1683
     23 N         138.0991  142.5545  160.5020 N.ar    1  UNL1       -0.1282
     24 N         138.6153  143.0658  159.1897 N.ar    1  UNL1       -0.1221
     25 C         139.7769  142.2084  158.7828 C.ar    1  UNL1        0.1932
     26 N         139.9786  141.1673  159.8436 N.ar    1  UNL1       -0.2884
     27 C         141.0323  140.0996  159.8421 C.3     1  UNL1        0.1340
     28 C         138.4456  138.9326  164.6489 C.ar    1  UNL1        0.2250
     29 C         138.3078  140.4252  164.7054 C.ar    1  UNL1        0.0578
     30 C         138.4732  141.2414  163.4578 C.ar    1  UNL1        0.0094
     31 C         138.7763  140.5650  162.1537 C.ar    1  UNL1        0.0553
     32 C         138.9141  139.0724  162.0973 C.ar    1  UNL1        0.1051
     33 N         138.7488  138.2562  163.3450 N.ar    1  UNL1       -0.2100
     34 C         137.7699  138.7600  167.1517 C.3     1  UNL1        0.2542
     35 O         138.2803  138.1164  165.8965 O.3     1  UNL1       -0.4561
@<TRIPOS>BOND
     1    34    35    1
     2    35    28    1
     3    28    29   ar
     4    29    30   ar
     5    30    31   ar
     6    31    22    1
     7    22    23   ar
     8    23    24   ar
     9    24    25   ar
    10    25    21    1
    11    21    20    1
    12    20    19    1
    13    19     1    1
    14     1     2    1
    15     2     3    1
    16     3     4    1
    17     4     5    1
    18     5     6   ar
    19     6     7   ar
    20     7     8   ar
    21     8    13    1
    22    13    14   ar
    23    14    15   ar
    24    15    16    1
    25    15    17   ar
    26    17    18   ar
    27     8     9   ar
    28     9    10   ar
    29    10    11    1
    30    11    12    1
    31    25    26   ar
    32    26    27    1
    33    31    32   ar
    34    32    33   ar
    35    33    28   ar
    36    26    22   ar
    37    12     2    1
    38    10     5   ar
    39    18    13   ar
@<TRIPOS>MOLECULE
*****
 35 39 0 0 0
SMALL
GASTEIGER

@<TRIPOS>ATOM
      1 C         138.1623  141.0722  158.4275 C.3     1  UNL1        0.0730
      2 N         138.3080  140.5594  159.8296 N.3     1  UNL1       -0.2720
      3 C         138.6412  139.1025  159.9583 C.3     1  UNL1        0.0768
      4 C         138.8500  138.2976  161.2068 C.3     1  UNL1        0.0433
      5 C         138.7770  138.7507  162.6347 C.ar    1  UNL1       -0.0247
      6 C         139.0531  137.6215  163.5828 C.ar    1  UNL1       -0.0045
      7 C         139.0294  137.8623  165.0631 C.ar    1  UNL1        0.0013
      8 C         138.7297  139.2323  165.5955 C.ar    1  UNL1        0.0206
      9 C         138.4536  140.3615  164.6474 C.ar    1  UNL1       -0.0029
     10 C         138.4773  140.1207  163.1671 C.ar    1  UNL1       -0.0246
     11 C         138.1765  141.3759  162.4028 C.3     1  UNL1        0.0433
     12 C         138.1012  141.5710  160.9175 C.3     1  UNL1        0.0768
     13 C         138.7060  139.4731  167.0759 C.ar    1  UNL1        0.1227
     14 C         139.6565  140.3439  167.8428 C.ar    1  UNL1        0.0580
     15 C         139.2656  140.2944  169.2901 C.ar    1  UNL1        0.1548
     16 C         139.9471  141.0190  170.4127 C.3     1  UNL1        0.0754
     17 O         138.0735  139.3929  169.4177 O.2     1  UNL1       -0.3578
     18 N         137.7276  138.8853  168.0492 N.ar    1  UNL1       -0.0774
     19 C         138.1754  142.5488  158.1638 C.3     1  UNL1        0.0294
     20 C         139.0851  143.1151  157.1140 C.3     1  UNL1        0.0666
     21 S         140.1648  144.0821  157.4997 S.3     1  UNL1       -0.0756
     22 C         141.0443  144.3626  161.2698 C.ar    1  UNL1        0.1683
     23 N         140.3062  145.6495  161.0478 N.ar    1  UNL1       -0.1282
     24 N         139.8870  145.7010  159.6085 N.ar    1  UNL1       -0.1221
     25 C         140.3659  144.4460  158.9410 C.ar    1  UNL1        0.1932
     26 N         141.0811  143.6189  159.9677 N.ar    1  UNL1       -0.2884
     27 C         141.7210  142.2825  159.7335 C.3     1  UNL1        0.1340
     28 C         142.8336  142.9768  165.1591 C.ar    1  UNL1        0.2250
     29 C         141.3632  142.8152  164.9103 C.ar    1  UNL1        0.0578
     30 C         140.7668  143.2772  163.6139 C.ar    1  UNL1        0.0094
     31 C         141.6407  143.9007  162.5662 C.ar    1  UNL1        0.0553
     32 C         143.1110  144.0621  162.8151 C.ar    1  UNL1        0.1051
     33 N         143.7075  143.6002  164.1116 N.ar    1  UNL1       -0.2100
     34 C         143.0511  141.1783  167.0216 C.3     1  UNL1        0.2542
     35 O         143.4301  142.5148  166.4556 O.3     1  UNL1       -0.4561
@<TRIPOS>BOND
     1    34    35    1
     2    35    28    1
     3    28    29   ar
     4    29    30   ar
     5    30    31   ar
     6    31    22    1
     7    22    23   ar
     8    23    24   ar
     9    24    25   ar
    10    25    21    1
    11    21    20    1
    12    20    19    1
    13    19     1    1
    14     1     2    1
    15     2     3    1
    16     3     4    1
    17     4     5    1
    18     5     6   ar
    19     6     7   ar
    20     7     8   ar
    21     8    13    1
    22    13    14   ar
    23    14    15   ar
    24    15    16    1
    25    15    17   ar
    26    17    18   ar
    27     8     9   ar
    28     9    10   ar
    29    10    11    1
    30    11    12    1
    31    25    26   ar
    32    26    27    1
    33    31    32   ar
    34    32    33   ar
    35    33    28   ar
    36    26    22   ar
    37    12     2    1
    38    10     5   ar
    39    18    13   ar
@<TRIPOS>MOLECULE
*****
 35 39 0 0 0
SMALL
GASTEIGER

@<TRIPOS>ATOM
      1 C         144.4726  142.9186  160.8420 C.3     1  UNL1        0.0730
      2 N         144.0686  142.2031  162.0969 N.3     1  UNL1       -0.2720
      3 C         144.7605  140.8969  162.3527 C.3     1  UNL1        0.0768
      4 C         144.5808  139.9533  163.5049 C.3     1  UNL1        0.0433
      5 C         143.6650  140.0828  164.6856 C.ar    1  UNL1       -0.0247
      6 C         143.7963  138.9105  165.6123 C.ar    1  UNL1       -0.0045
      7 C         142.9653  138.8434  166.8592 C.ar    1  UNL1        0.0013
      8 C         142.0029  139.9484  167.1797 C.ar    1  UNL1        0.0206
      9 C         141.8716  141.1207  166.2530 C.ar    1  UNL1       -0.0029
     10 C         142.7026  141.1879  165.0061 C.ar    1  UNL1       -0.0246
     11 C         142.4183  142.4364  164.2247 C.3     1  UNL1        0.0433
     12 C         143.0263  142.8881  162.9300 C.3     1  UNL1        0.0768
     13 C         141.1719  139.8812  168.4266 C.ar    1  UNL1        0.1227
     14 C         139.6960  140.1328  168.5171 C.ar    1  UNL1        0.0580
     15 C         139.2829  139.9577  169.9484 C.ar    1  UNL1        0.1548
     16 C         137.8931  140.1148  170.4905 C.3     1  UNL1        0.0754
     17 O         140.5035  139.5979  170.7425 O.2     1  UNL1       -0.3578
     18 N         141.6711  139.5506  169.8020 N.ar    1  UNL1       -0.0774
     19 C         144.6559  142.1507  159.5666 C.3     1  UNL1        0.0294
     20 C         143.5147  142.0144  158.6025 C.3     1  UNL1        0.0666
     21 S         142.8348  140.6888  158.4278 S.3     1  UNL1       -0.0756
     22 C         141.3222  139.1490  161.6537 C.ar    1  UNL1        0.1683
     23 N         142.3677  138.1301  161.3088 N.ar    1  UNL1       -0.1282
     24 N         143.0615  138.5829  160.0584 N.ar    1  UNL1       -0.1221
     25 C         142.4449  139.8817  159.6305 C.ar    1  UNL1        0.1932
     26 N         141.3700  140.2314  160.6164 N.ar    1  UNL1       -0.2884
     27 C         140.4961  141.4499  160.5728 C.3     1  UNL1        0.1340
     28 C         138.5324  138.9865  165.1807 C.ar    1  UNL1        0.2250
     29 C         139.7415  138.0998  165.1395 C.ar    1  UNL1        0.0578
     30 C         140.6715  138.1540  163.9638 C.ar    1  UNL1        0.0094
     31 C         140.3923  139.0948  162.8293 C.ar    1  UNL1        0.0553
     32 C         139.1831  139.9814  162.8707 C.ar    1  UNL1        0.1051
     33 N         138.2531  139.9273  164.0464 N.ar    1  UNL1       -0.2100
     34 C         137.3244  137.6228  167.0331 C.3     1  UNL1        0.2542
     35 O         137.6024  138.9323  166.3564 O.3     1  UNL1       -0.4561
@<TRIPOS>BOND
     1    34    35    1
     2    35    28    1
     3    28    29   ar
     4    29    30   ar
     5    30    31   ar
     6    31    22    1
     7    22    23   ar
     8    23    24   ar
     9    24    25   ar
    10    25    21    1
    11    21    20    1
    12    20    19    1
    13    19     1    1
    14     1     2    1
    15     2     3    1
    16     3     4    1
    17     4     5    1
    18     5     6   ar
    19     6     7   ar
    20     7     8   ar
    21     8    13    1
    22    13    14   ar
    23    14    15   ar
    24    15    16    1
    25    15    17   ar
    26    17    18   ar
    27     8     9   ar
    28     9    10   ar
    29    10    11    1
    30    11    12    1
    31    25    26   ar
    32    26    27    1
    33    31    32   ar
    34    32    33   ar
    35    33    28   ar
    36    26    22   ar
    37    12     2    1
    38    10     5   ar
    39    18    13   ar
@<TRIPOS>MOLECULE
*****
 35 39 0 0 0
SMALL
GASTEIGER

@<TRIPOS>ATOM
      1 C         139.7485  141.0081  158.9653 C.3     1  UNL1        0.0730
      2 N         139.6162  140.6363  160.4125 N.3     1  UNL1       -0.2720
      3 C         139.2675  139.2034  160.6870 C.3     1  UNL1        0.0768
      4 C         139.0665  138.5268  162.0107 C.3     1  UNL1        0.0433
      5 C         139.1647  139.1159  163.3865 C.ar    1  UNL1       -0.0247
      6 C         138.8885  138.0882  164.4437 C.ar    1  UNL1       -0.0045
      7 C         138.9356  138.4718  165.8930 C.ar    1  UNL1        0.0013
      8 C         139.2590  139.8830  166.2853 C.ar    1  UNL1        0.0206
      9 C         139.5352  140.9107  165.2281 C.ar    1  UNL1       -0.0029
     10 C         139.4881  140.5272  163.7788 C.ar    1  UNL1       -0.0246
     11 C         139.7931  141.6978  162.8919 C.3     1  UNL1        0.0433
     12 C         139.8501  141.7463  161.3937 C.3     1  UNL1        0.0768
     13 C         139.3061  140.2666  167.7347 C.ar    1  UNL1        0.1227
     14 C         139.9840  141.4771  168.3048 C.ar    1  UNL1        0.0580
     15 C         139.7805  141.4656  169.7908 C.ar    1  UNL1        0.1548
     16 C         140.2911  142.4916  170.7586 C.3     1  UNL1        0.0754
     17 O         138.9767  140.2480  170.1392 O.2     1  UNL1       -0.3578
     18 N         138.6835  139.5069  168.8684 N.ar    1  UNL1       -0.0774
     19 C         141.0511  141.5374  158.4430 C.3     1  UNL1        0.0294
     20 C         142.0922  140.5897  157.9252 C.3     1  UNL1        0.0666
     21 S         143.2683  140.2263  158.7823 S.3     1  UNL1       -0.0756
     22 C         142.8926  139.2186  162.5118 C.ar    1  UNL1        0.1683
     23 N         142.5424  137.9308  161.8269 N.ar    1  UNL1       -0.1282
     24 N         142.6405  138.1516  160.3465 N.ar    1  UNL1       -0.1221
     25 C         143.0513  139.5758  160.1165 C.ar    1  UNL1        0.1932
     26 N         143.2072  140.2351  161.4547 N.ar    1  UNL1       -0.2884
     27 C         143.6073  141.6609  161.6938 C.3     1  UNL1        0.1340
     28 C         142.9837  139.9104  166.9573 C.ar    1  UNL1        0.2250
     29 C         142.7712  138.5270  166.4178 C.ar    1  UNL1        0.0578
     30 C         142.7409  138.2964  164.9360 C.ar    1  UNL1        0.0094
     31 C         142.9230  139.4492  163.9936 C.ar    1  UNL1        0.0553
     32 C         143.1355  140.8325  164.5332 C.ar    1  UNL1        0.1051
     33 N         143.1658  141.0631  166.0151 N.ar    1  UNL1       -0.2100
     34 C         142.5789  139.0538  169.3766 C.3     1  UNL1        0.2542
     35 O         143.0141  140.1411  168.4392 O.3     1  UNL1       -0.4561
@<TRIPOS>BOND
     1    34    35    1
     2    35    28    1
     3    28    29   ar
     4    29    30   ar
     5    30    31   ar
     6    31    22    1
     7    22    23   ar
     8    23    24   ar
     9    24    25   ar
    10    25    21    1
    11    21    20    1
    12    20    19    1
    13    19     1    1
    14     1     2    1
    15     2     3    1
    16     3     4    1
    17     4     5    1
    18     5     6   ar
    19     6     7   ar
    20     7     8   ar
    21     8    13    1
    22    13    14   ar
    23    14    15   ar
    24    15    16    1
    25    15    17   ar
    26    17    18   ar
    27     8     9   ar
    28     9    10   ar
    29    10    11    1
    30    11    12    1
    31    25    26   ar
    32    26    27    1
    33    31    32   ar
    34    32    33   ar
    35    33    28   ar
    36    26    22   ar
    37    12     2    1
    38    10     5   ar
    39    18    13   ar
@<TRIPOS>MOLECULE
*****
 35 39 0 0 0
SMALL
GASTEIGER

@<TRIPOS>ATOM
      1 C         142.7501  139.8247  158.7594 C.3     1  UNL1        0.0730
      2 N         142.6760  139.6301  160.2449 N.3     1  UNL1       -0.2720
      3 C         142.1751  138.2920  160.7018 C.3     1  UNL1        0.0768
      4 C         141.9872  137.7927  162.1037 C.3     1  UNL1        0.0433
      5 C         142.2537  138.5080  163.3948 C.ar    1  UNL1       -0.0247
      6 C         141.9294  137.6437  164.5772 C.ar    1  UNL1       -0.0045
      7 C         142.1255  138.1709  165.9678 C.ar    1  UNL1        0.0013
      8 C         142.6457  139.5623  166.1761 C.ar    1  UNL1        0.0206
      9 C         142.9700  140.4265  164.9937 C.ar    1  UNL1       -0.0029
     10 C         142.7740  139.8994  163.6031 C.ar    1  UNL1       -0.0246
     11 C         143.1562  140.9191  162.5716 C.3     1  UNL1        0.0433
     12 C         143.1126  140.7992  161.0770 C.3     1  UNL1        0.0768
     13 C         142.8417  140.0894  167.5667 C.ar    1  UNL1        0.1227
     14 C         142.8898  141.5353  167.9628 C.ar    1  UNL1        0.0580
     15 C         143.1018  141.6027  169.4462 C.ar    1  UNL1        0.1548
     16 C         143.2116  142.8546  170.2652 C.3     1  UNL1        0.0754
     17 O         143.1849  140.1984  169.9668 O.2     1  UNL1       -0.3578
     18 N         143.0241  139.2631  168.8052 N.ar    1  UNL1       -0.0774
     19 C         141.5661  140.3654  158.0139 C.3     1  UNL1        0.0294
     20 C         140.9295  141.6521  158.4490 C.3     1  UNL1        0.0666
     21 S         139.5530  141.6439  159.0449 S.3     1  UNL1       -0.0756
     22 C         138.9474  139.8644  162.4408 C.ar    1  UNL1        0.1683
     23 N         138.5586  138.7849  161.4745 N.ar    1  UNL1       -0.1282
     24 N         138.7382  139.3202  160.0848 N.ar    1  UNL1       -0.1221
     25 C         139.2379  140.7304  160.1922 C.ar    1  UNL1        0.1932
     26 N         139.3672  141.0667  161.6482 N.ar    1  UNL1       -0.2884
     27 C         139.8343  142.3756  162.2127 C.3     1  UNL1        0.1340
     28 C         138.8682  139.5507  166.9291 C.ar    1  UNL1        0.2250
     29 C         139.2963  140.8305  166.2742 C.ar    1  UNL1        0.0578
     30 C         139.3227  140.9351  164.7781 C.ar    1  UNL1        0.0094
     31 C         138.9210  139.7599  163.9368 C.ar    1  UNL1        0.0553
     32 C         138.4929  138.4802  164.5919 C.ar    1  UNL1        0.1051
     33 N         138.4665  138.3756  166.0880 N.ar    1  UNL1       -0.2100
     34 C         139.5145  140.4935  169.2623 C.3     1  UNL1        0.2542
     35 O         138.8418  139.4461  168.4252 O.3     1  UNL1       -0.4561
@<TRIPOS>BOND
     1    34    35    1
     2    35    28    1
     3    28    29   ar
     4    29    30   ar
     5    30    31   ar
     6    31    22    1
     7    22    23   ar
     8    23    24   ar
     9    24    25   ar
    10    25    21    1
    11    21    20    1
    12    20    19    1
    13    19     1    1
    14     1     2    1
    15     2     3    1
    16     3     4    1
    17     4     5    1
    18     5     6   ar
    19     6     7   ar
    20     7     8   ar
    21     8    13    1
    22    13    14   ar
    23    14    15   ar
    24    15    16    1
    25    15    17   ar
    26    17    18   ar
    27     8     9   ar
    28     9    10   ar
    29    10    11    1
    30    11    12    1
    31    25    26   ar
    32    26    27    1
    33    31    32   ar
    34    32    33   ar
    35    33    28   ar
    36    26    22   ar
    37    12     2    1
    38    10     5   ar
    39    18    13   ar
@<TRIPOS>MOLECULE
*****
 35 39 0 0 0
SMALL
GASTEIGER

@<TRIPOS>ATOM
      1 C         142.8397  142.7186  159.1450 C.3     1  UNL1        0.0730
      2 N         142.6989  141.9477  160.4241 N.3     1  UNL1       -0.2720
      3 C         142.6672  140.4545  160.2838 C.3     1  UNL1        0.0768
      4 C         142.5371  139.4168  161.3591 C.3     1  UNL1        0.0433
      5 C         142.4066  139.6158  162.8400 C.ar    1  UNL1       -0.0247
      6 C         142.3009  138.3052  163.5619 C.ar    1  UNL1       -0.0045
      7 C         142.1626  138.2805  165.0553 C.ar    1  UNL1        0.0013
      8 C         142.1300  139.5664  165.8269 C.ar    1  UNL1        0.0206
      9 C         142.2356  140.8771  165.1050 C.ar    1  UNL1       -0.0029
     10 C         142.3740  140.9018  163.6116 C.ar    1  UNL1       -0.0246
     11 C         142.4637  142.3063  163.0927 C.3     1  UNL1        0.0433
     12 C         142.6083  142.7717  161.6741 C.3     1  UNL1        0.0768
     13 C         141.9917  139.5418  167.3203 C.ar    1  UNL1        0.1227
     14 C         140.8313  140.0750  168.1072 C.ar    1  UNL1        0.0580
     15 C         141.1120  139.8423  169.5622 C.ar    1  UNL1        0.1548
     16 C         140.2160  140.2203  170.7044 C.3     1  UNL1        0.0754
     17 O         142.4457  139.1653  169.6746 O.2     1  UNL1       -0.3578
     18 N         142.9895  138.9795  168.2890 N.ar    1  UNL1       -0.0774
     19 C         141.8927  142.4668  158.0094 C.3     1  UNL1        0.0294
     20 C         140.7914  143.4435  157.7206 C.3     1  UNL1        0.0666
     21 S         139.4215  143.2187  158.2887 S.3     1  UNL1       -0.0756
     22 C         138.9499  141.9106  161.9125 C.ar    1  UNL1        0.1683
     23 N         139.0122  143.3913  162.1446 N.ar    1  UNL1       -0.1282
     24 N         139.1965  144.0614  160.8154 N.ar    1  UNL1       -0.1221
     25 C         139.2480  142.9950  159.7618 C.ar    1  UNL1        0.1932
     26 N         139.0956  141.6658  160.4398 N.ar    1  UNL1       -0.2884
     27 C         139.0899  140.3267  159.7639 C.3     1  UNL1        0.1340
     28 C         138.4188  138.7570  165.0784 C.ar    1  UNL1        0.2250
     29 C         138.3947  140.2089  165.4545 C.ar    1  UNL1        0.0578
     30 C         138.5718  141.2601  164.3992 C.ar    1  UNL1        0.0094
     31 C         138.7728  140.8594  162.9677 C.ar    1  UNL1        0.0553
     32 C         138.7969  139.4076  162.5917 C.ar    1  UNL1        0.1051
     33 N         138.6199  138.3564  163.6470 N.ar    1  UNL1       -0.2100
     34 C         137.2936  137.9385  167.2725 C.3     1  UNL1        0.2542
     35 O         138.2418  137.7058  166.1337 O.3     1  UNL1       -0.4561
@<TRIPOS>BOND
     1    34    35    1
     2    35    28    1
     3    28    29   ar
     4    29    30   ar
     5    30    31   ar
     6    31    22    1
     7    22    23   ar
     8    23    24   ar
     9    24    25   ar
    10    25    21    1
    11    21    20    1
    12    20    19    1
    13    19     1    1
    14     1     2    1
    15     2     3    1
    16     3     4    1
    17     4     5    1
    18     5     6   ar
    19     6     7   ar
    20     7     8   ar
    21     8    13    1
    22    13    14   ar
    23    14    15   ar
    24    15    16    1
    25    15    17   ar
    26    17    18   ar
    27     8     9   ar
    28     9    10   ar
    29    10    11    1
    30    11    12    1
    31    25    26   ar
    32    26    27    1
    33    31    32   ar
    34    32    33   ar
    35    33    28   ar
    36    26    22   ar
    37    12     2    1
    38    10     5   ar
    39    18    13   ar
@<TRIPOS>MOLECULE
*****
 35 39 0 0 0
SMALL
GASTEIGER

@<TRIPOS>ATOM
      1 C         138.0087  140.6902  158.3951 C.3     1  UNL1        0.0730
      2 N         138.2536  140.2488  159.8076 N.3     1  UNL1       -0.2720
      3 C         138.8050  138.8633  159.9701 C.3     1  UNL1        0.0768
      4 C         139.1538  138.1380  161.2361 C.3     1  UNL1        0.0433
      5 C         139.0372  138.6191  162.6519 C.ar    1  UNL1       -0.0247
      6 C         139.4964  137.5742  163.6253 C.ar    1  UNL1       -0.0045
      7 C         139.4615  137.8545  165.0985 C.ar    1  UNL1        0.0013
      8 C         138.9675  139.1797  165.5984 C.ar    1  UNL1        0.0206
      9 C         138.5083  140.2246  164.6249 C.ar    1  UNL1       -0.0029
     10 C         138.5432  139.9443  163.1518 C.ar    1  UNL1       -0.0246
     11 C         138.0437  141.1157  162.3591 C.3     1  UNL1        0.0433
     12 C         137.9149  141.2511  160.8708 C.3     1  UNL1        0.0768
     13 C         138.9326  139.4600  167.0715 C.ar    1  UNL1        0.1227
     14 C         139.9382  140.2651  167.8399 C.ar    1  UNL1        0.0580
     15 C         139.5131  140.2871  169.2782 C.ar    1  UNL1        0.1548
     16 C         140.2305  140.9791  170.3991 C.3     1  UNL1        0.0754
     17 O         138.2446  139.4956  169.3987 O.2     1  UNL1       -0.3578
     18 N         137.8858  138.9844  168.0349 N.ar    1  UNL1       -0.0774
     19 C         138.5577  142.0001  157.9127 C.3     1  UNL1        0.0294
     20 C         139.6455  142.0227  156.8800 C.3     1  UNL1        0.0666
     21 S         140.8875  142.8298  157.1166 S.3     1  UNL1       -0.0756
     22 C         142.4231  142.3050  160.6425 C.ar    1  UNL1        0.1683
     23 N         142.3282  143.8010  160.5874 N.ar    1  UNL1       -0.1282
     24 N         141.7414  144.1796  159.2599 N.ar    1  UNL1       -0.1221
     25 C         141.4737  142.9177  158.4945 C.ar    1  UNL1        0.1932
     26 N         141.8950  141.7592  159.3490 N.ar    1  UNL1       -0.2884
     27 C         141.8041  140.3092  158.9756 C.3     1  UNL1        0.1340
     28 C         144.0131  139.8805  164.0838 C.ar    1  UNL1        0.2250
     29 C         142.5353  140.0876  163.9319 C.ar    1  UNL1        0.0578
     30 C         142.0053  140.8957  162.7847 C.ar    1  UNL1        0.0094
     31 C         142.9531  141.4968  161.7895 C.ar    1  UNL1        0.0553
     32 C         144.4309  141.2897  161.9416 C.ar    1  UNL1        0.1051
     33 N         144.9609  140.4815  163.0888 N.ar    1  UNL1       -0.2100
     34 C         143.5978  138.3101  166.1116 C.3     1  UNL1        0.2542
     35 O         144.5431  139.0723  165.2310 O.3     1  UNL1       -0.4561
@<TRIPOS>BOND
     1    34    35    1
     2    35    28    1
     3    28    29   ar
     4    29    30   ar
     5    30    31   ar
     6    31    22    1
     7    22    23   ar
     8    23    24   ar
     9    24    25   ar
    10    25    21    1
    11    21    20    1
    12    20    19    1
    13    19     1    1
    14     1     2    1
    15     2     3    1
    16     3     4    1
    17     4     5    1
    18     5     6   ar
    19     6     7   ar
    20     7     8   ar
    21     8    13    1
    22    13    14   ar
    23    14    15   ar
    24    15    16    1
    25    15    17   ar
    26    17    18   ar
    27     8     9   ar
    28     9    10   ar
    29    10    11    1
    30    11    12    1
    31    25    26   ar
    32    26    27    1
    33    31    32   ar
    34    32    33   ar
    35    33    28   ar
    36    26    22   ar
    37    12     2    1
    38    10     5   ar
    39    18    13   ar
@<TRIPOS>MOLECULE
*****
 35 39 0 0 0
SMALL
GASTEIGER

@<TRIPOS>ATOM
      1 C         140.1827  145.3099  160.1767 C.3     1  UNL1        0.0730
      2 N         139.9717  144.4110  161.3589 N.3     1  UNL1       -0.2720
      3 C         138.9706  143.3101  161.1688 C.3     1  UNL1        0.0768
      4 C         138.5402  142.2581  162.1477 C.3     1  UNL1        0.0433
      5 C         139.0045  142.0472  163.5583 C.ar    1  UNL1       -0.0247
      6 C         138.3170  140.8742  164.1919 C.ar    1  UNL1       -0.0045
      7 C         138.6389  140.4902  165.6057 C.ar    1  UNL1        0.0013
      8 C         139.6484  141.2791  166.3860 C.ar    1  UNL1        0.0206
      9 C         140.3359  142.4521  165.7523 C.ar    1  UNL1       -0.0029
     10 C         140.0139  142.8361  164.3385 C.ar    1  UNL1       -0.0246
     11 C         140.8083  144.0308  163.9007 C.3     1  UNL1        0.0433
     12 C         140.7894  144.7316  162.5746 C.3     1  UNL1        0.0768
     13 C         139.9703  140.8950  167.7998 C.ar    1  UNL1        0.1227
     14 C         140.9405  141.5951  168.7045 C.ar    1  UNL1        0.0580
     15 C         140.9483  140.8762  170.0209 C.ar    1  UNL1        0.1548
     16 C         141.7762  141.2382  171.2182 C.3     1  UNL1        0.0754
     17 O         139.9829  139.7318  169.9299 O.2     1  UNL1       -0.3578
     18 N         139.3784  139.7434  168.5571 N.ar    1  UNL1       -0.0774
     19 C         140.5530  144.7247  158.8462 C.3     1  UNL1        0.0294
     20 C         141.9513  144.8742  158.3241 C.3     1  UNL1        0.0666
     21 S         142.8083  143.6607  158.1170 S.3     1  UNL1       -0.0756
     22 C         142.5788  140.8267  160.7592 C.ar    1  UNL1        0.1683
     23 N         141.8189  140.2202  159.6169 N.ar    1  UNL1       -0.1282
     24 N         141.8124  141.2080  158.4882 N.ar    1  UNL1       -0.1221
     25 C         142.5683  142.4250  158.9328 C.ar    1  UNL1        0.1932
     26 N         143.0419  142.1893  160.3363 N.ar    1  UNL1       -0.2884
     27 C         143.8389  143.1479  161.1706 C.3     1  UNL1        0.1340
     28 C         143.3363  138.8970  164.7532 C.ar    1  UNL1        0.2250
     29 C         141.9298  139.0978  164.2720 C.ar    1  UNL1        0.0578
     30 C         141.6773  139.7411  162.9406 C.ar    1  UNL1        0.0094
     31 C         142.8313  140.1835  162.0905 C.ar    1  UNL1        0.0553
     32 C         144.2377  139.9826  162.5718 C.ar    1  UNL1        0.1051
     33 N         144.4902  139.3393  163.9032 N.ar    1  UNL1       -0.2100
     34 C         143.0517  138.8833  167.3357 C.3     1  UNL1        0.2542
     35 O         143.5888  138.2537  166.0846 O.3     1  UNL1       -0.4561
@<TRIPOS>BOND
     1    34    35    1
     2    35    28    1
     3    28    29   ar
     4    29    30   ar
     5    30    31   ar
     6    31    22    1
     7    22    23   ar
     8    23    24   ar
     9    24    25   ar
    10    25    21    1
    11    21    20    1
    12    20    19    1
    13    19     1    1
    14     1     2    1
    15     2     3    1
    16     3     4    1
    17     4     5    1
    18     5     6   ar
    19     6     7   ar
    20     7     8   ar
    21     8    13    1
    22    13    14   ar
    23    14    15   ar
    24    15    16    1
    25    15    17   ar
    26    17    18   ar
    27     8     9   ar
    28     9    10   ar
    29    10    11    1
    30    11    12    1
    31    25    26   ar
    32    26    27    1
    33    31    32   ar
    34    32    33   ar
    35    33    28   ar
    36    26    22   ar
    37    12     2    1
    38    10     5   ar
    39    18    13   ar
