@<TRIPOS>MOLECULE
*****
 38 42 0 0 0
SMALL
GASTEIGER

@<TRIPOS>ATOM
      1 C         143.3273  138.4156  160.4753 C.3     1  UNL1        0.0930
      2 C         144.1254  139.6832  160.5549 C.3     1  UNL1        0.0427
      3 C         144.0829  140.1694  161.9733 C.3     1  UNL1        0.0927
      4 N         143.2586  139.2023  162.7703 N.pl3   1  UNL1       -0.3033
      5 C         142.7916  138.1184  161.8445 C.3     1  UNL1        0.1104
      6 C         142.9546  139.3017  164.2359 C.ar    1  UNL1        0.0878
      7 C         143.9830  138.8847  165.2451 C.ar    1  UNL1        0.1543
      8 F         145.3154  138.3684  164.7888 F       1  UNL1       -0.2028
      9 C         143.6790  138.9841  166.7106 C.ar    1  UNL1        0.0356
     10 C         142.3466  139.5004  167.1668 C.ar    1  UNL1        0.0580
     11 C         142.0426  139.5998  168.6324 C.ar    1  UNL1        0.1996
     12 O         143.0710  139.1828  169.6416 O.2     1  UNL1       -0.2864
     13 C         140.7103  140.1161  169.0887 C.ar    1  UNL1        0.0701
     14 C         139.6819  140.5331  168.0794 C.ar    1  UNL1        0.0801
     15 N         139.9859  140.4337  166.6139 N.ar    1  UNL1       -0.3270
     16 C         141.3183  139.9174  166.1576 C.ar    1  UNL1        0.0750
     17 C         141.6223  139.8180  164.6922 C.ar    1  UNL1        0.0890
     18 CL        140.5939  140.2350  163.6829 Cl      1  UNL1       -0.0794
     19 C         140.4063  140.2155  170.5541 C.2     1  UNL1        0.0774
     20 O         141.2364  141.1026  171.4339 O.co2   1  UNL1       -0.5444
     21 O         139.2721  139.4277  171.1400 O.co2   1  UNL1       -0.5444
     22 C         138.9575  140.8507  165.6047 C.3     1  UNL1        0.0857
     23 C         138.2598  141.9297  164.8307 C.3     1  UNL1        0.0245
     24 C         137.8740  140.4940  164.6307 C.3     1  UNL1        0.0245
     25 C         142.1557  138.0664  158.1828 C.2     1  UNL1        0.2339
     26 O         141.4305  139.3682  158.3552 O.2     1  UNL1       -0.2741
     27 N         143.1041  137.5901  159.2430 N.am    1  UNL1       -0.3035
     28 H         143.5800  136.7357  159.1299 H       1  UNL1        0.1495
     29 C         141.9325  137.2409  156.9505 C.3     1  UNL1        0.1488
     30 S         143.0194  136.3394  156.4446 S.3     1  UNL1       -0.0768
     31 N         143.6673  131.2713  157.7766 N.pl3   1  UNL1       -0.3361
     32 C         143.1503  132.5209  157.1277 C.ar    1  UNL1        0.1798
     33 N         142.0407  132.5974  156.1212 N.ar    1  UNL1       -0.1254
     34 N         141.8566  134.0372  155.7428 N.ar    1  UNL1       -0.1332
     35 C         142.8524  134.8504  156.5154 C.ar    1  UNL1        0.1610
     36 S         143.6519  133.9133  157.3713 S.2     1  UNL1       -0.0247
     37 H         143.2710  130.3989  157.5504 H       1  UNL1        0.1442
     38 H         144.4030  131.3235  158.4287 H       1  UNL1        0.1442
@<TRIPOS>UNITY_ATOM_ATTR
20 1
charge -1
@<TRIPOS>BOND
     1    31    32    1
     2    32    33   ar
     3    33    34   ar
     4    34    35   ar
     5    35    30    1
     6    30    29    1
     7    29    25    1
     8    25    26    2
     9    25    27   am
    10    27     1    1
    11     1     2    1
    12     2     3    1
    13     3     4    1
    14     4     6    1
    15     6     7   ar
    16     7     8    1
    17     7     9   ar
    18     9    10   ar
    19    10    11   ar
    20    11    12    2
    21    11    13   ar
    22    13    19    1
    23    19    20   ar
    24    19    21   ar
    25    13    14   ar
    26    14    15   ar
    27    15    22    1
    28    22    23    1
    29    23    24    1
    30    15    16   ar
    31    16    17   ar
    32    17    18    1
    33     4     5    1
    34    35    36   ar
    35    36    32   ar
    36     5     1    1
    37    17     6   ar
    38    16    10   ar
    39    24    22    1
    40    31    37    1
    41    31    38    1
    42    27    28    1
@<TRIPOS>MOLECULE
*****
 38 42 0 0 0
SMALL
GASTEIGER

@<TRIPOS>ATOM
      1 C         140.9506  138.8314  159.2480 C.3     1  UNL1        0.0930
      2 C         140.1900  140.1154  159.0963 C.3     1  UNL1        0.0427
      3 C         139.7072  140.5314  160.4542 C.3     1  UNL1        0.0927
      4 N         140.1692  139.5045  161.4451 N.pl3   1  UNL1       -0.3033
      5 C         140.9377  138.4538  160.6996 C.3     1  UNL1        0.1104
      6 C         139.9086  139.5246  162.9222 C.ar    1  UNL1        0.0878
      7 C         138.7616  138.7440  163.4921 C.ar    1  UNL1        0.1543
      8 F         137.8751  137.9431  162.5850 F       1  UNL1       -0.2028
      9 C         138.5010  138.7641  164.9691 C.ar    1  UNL1        0.0356
     10 C         139.3875  139.5650  165.8762 C.ar    1  UNL1        0.0580
     11 C         139.1269  139.5851  167.3533 C.ar    1  UNL1        0.1996
     12 O         137.9799  138.8045  167.9233 O.2     1  UNL1       -0.2864
     13 C         140.0134  140.3859  168.2604 C.ar    1  UNL1        0.0701
     14 C         141.1604  141.1666  167.6905 C.ar    1  UNL1        0.0801
     15 N         141.4210  141.1465  166.2134 N.ar    1  UNL1       -0.3270
     16 C         140.5345  140.3456  165.3063 C.ar    1  UNL1        0.0750
     17 C         140.7951  140.3254  163.8293 C.ar    1  UNL1        0.0890
     18 CL        141.9422  141.1061  163.2593 Cl      1  UNL1       -0.0794
     19 C         139.7528  140.4061  169.7375 C.2     1  UNL1        0.0774
     20 O         138.8786  141.4711  170.3304 O.co2   1  UNL1       -0.5444
     21 O         140.3665  139.3613  170.6217 O.co2   1  UNL1       -0.5444
     22 C         142.5680  141.9271  165.6435 C.3     1  UNL1        0.0857
     23 C         143.9884  141.9868  165.1649 C.3     1  UNL1        0.0245
     24 C         143.1345  143.2196  165.1350 C.3     1  UNL1        0.0245
     25 C         140.7804  137.4945  157.0268 C.2     1  UNL1        0.2339
     26 O         139.2945  137.6997  157.0171 O.2     1  UNL1       -0.2741
     27 N         141.6084  138.0604  158.1422 N.am    1  UNL1       -0.3035
     28 H         142.5837  137.9257  158.1486 H       1  UNL1        0.1495
     29 C         141.4383  136.7235  155.9210 C.3     1  UNL1        0.1488
     30 S         142.7349  136.0120  156.1711 S.3     1  UNL1       -0.0768
     31 N         144.0353  131.2111  157.9431 N.pl3   1  UNL1       -0.3361
     32 C         143.3430  132.3224  157.2113 C.ar    1  UNL1        0.1798
     33 N         142.1794  132.1720  156.2767 N.ar    1  UNL1       -0.1254
     34 N         141.8100  133.5359  155.7733 N.ar    1  UNL1       -0.1332
     35 C         142.7453  134.5291  156.3968 C.ar    1  UNL1        0.1610
     36 S         143.6927  133.7791  157.2855 S.2     1  UNL1       -0.0247
     37 H         143.7308  130.2818  157.8289 H       1  UNL1        0.1442
     38 H         144.7941  131.4109  158.5377 H       1  UNL1        0.1442
@<TRIPOS>UNITY_ATOM_ATTR
20 1
charge -1
@<TRIPOS>BOND
     1    31    32    1
     2    32    33   ar
     3    33    34   ar
     4    34    35   ar
     5    35    30    1
     6    30    29    1
     7    29    25    1
     8    25    26    2
     9    25    27   am
    10    27     1    1
    11     1     2    1
    12     2     3    1
    13     3     4    1
    14     4     6    1
    15     6     7   ar
    16     7     8    1
    17     7     9   ar
    18     9    10   ar
    19    10    11   ar
    20    11    12    2
    21    11    13   ar
    22    13    19    1
    23    19    20   ar
    24    19    21   ar
    25    13    14   ar
    26    14    15   ar
    27    15    22    1
    28    22    23    1
    29    23    24    1
    30    15    16   ar
    31    16    17   ar
    32    17    18    1
    33     4     5    1
    34    35    36   ar
    35    36    32   ar
    36     5     1    1
    37    17     6   ar
    38    16    10   ar
    39    24    22    1
    40    31    37    1
    41    31    38    1
    42    27    28    1
@<TRIPOS>MOLECULE
*****
 38 42 0 0 0
SMALL
GASTEIGER

@<TRIPOS>ATOM
      1 C         138.3389  139.9337  159.3846 C.3     1  UNL1        0.0930
      2 C         139.5748  139.0836  159.3846 C.3     1  UNL1        0.0427
      3 C         140.0759  138.9943  160.7956 C.3     1  UNL1        0.0927
      4 N         139.1498  139.7893  161.6676 N.pl3   1  UNL1       -0.3033
      5 C         138.0763  140.3698  160.7956 C.3     1  UNL1        0.1104
      6 C         139.2752  139.9717  163.1513 C.ar    1  UNL1        0.0878
      7 C         138.7873  138.9016  164.0823 C.ar    1  UNL1        0.1543
      8 F         138.1741  137.6491  163.5298 F       1  UNL1       -0.2028
      9 C         138.9127  139.0840  165.5659 C.ar    1  UNL1        0.0356
     10 C         139.5260  140.3365  166.1183 C.ar    1  UNL1        0.0580
     11 C         139.6514  140.5189  167.6020 C.ar    1  UNL1        0.1996
     12 O         139.1635  139.4488  168.5330 O.2     1  UNL1       -0.2864
     13 C         140.2646  141.7714  168.1545 C.ar    1  UNL1        0.0701
     14 C         140.7525  142.8414  167.2233 C.ar    1  UNL1        0.0801
     15 N         140.6271  142.6590  165.7397 N.ar    1  UNL1       -0.3270
     16 C         140.0139  141.4065  165.1873 C.ar    1  UNL1        0.0750
     17 C         139.8885  141.2241  163.7037 C.ar    1  UNL1        0.0890
     18 CL        140.3763  142.2942  162.7726 Cl      1  UNL1       -0.0794
     19 C         140.3900  141.9538  169.6380 C.2     1  UNL1        0.0774
     20 O         141.3433  141.1001  170.4207 O.co2   1  UNL1       -0.5444
     21 O         139.5622  142.9899  170.3389 O.co2   1  UNL1       -0.5444
     22 C         141.1150  143.7291  164.8087 C.3     1  UNL1        0.0857
     23 C         142.2304  144.3711  164.0382 C.3     1  UNL1        0.0245
     24 C         140.8446  144.9405  163.9665 C.3     1  UNL1        0.0245
     25 C         137.8495  141.4989  157.3694 C.2     1  UNL1        0.2339
     26 O         139.0159  142.3598  157.7548 O.2     1  UNL1       -0.2741
     27 N         137.5110  140.2859  158.1843 N.am    1  UNL1       -0.3035
     28 H         136.7455  139.7209  157.9314 H       1  UNL1        0.1495
     29 C         137.0216  141.8510  156.1692 C.3     1  UNL1        0.1488
     30 S         136.1669  140.8063  155.5149 S.3     1  UNL1       -0.0768
     31 N         130.8946  140.7945  155.8009 N.pl3   1  UNL1       -0.3361
     32 C         132.3414  140.5701  156.1268 C.ar    1  UNL1        0.1798
     33 N         132.8731  139.8709  157.3426 N.ar    1  UNL1       -0.1254
     34 N         134.3709  139.8742  157.2614 N.ar    1  UNL1       -0.1332
     35 C         134.7649  140.5756  155.9954 C.ar    1  UNL1        0.1610
     36 S         133.5105  141.0056  155.2942 S.2     1  UNL1       -0.0247
     37 H         130.1958  140.4695  156.4135 H       1  UNL1        0.1442
     38 H         130.6437  141.2667  154.9743 H       1  UNL1        0.1442
@<TRIPOS>UNITY_ATOM_ATTR
20 1
charge -1
@<TRIPOS>BOND
     1    31    32    1
     2    32    33   ar
     3    33    34   ar
     4    34    35   ar
     5    35    30    1
     6    30    29    1
     7    29    25    1
     8    25    26    2
     9    25    27   am
    10    27     1    1
    11     1     2    1
    12     2     3    1
    13     3     4    1
    14     4     6    1
    15     6     7   ar
    16     7     8    1
    17     7     9   ar
    18     9    10   ar
    19    10    11   ar
    20    11    12    2
    21    11    13   ar
    22    13    19    1
    23    19    20   ar
    24    19    21   ar
    25    13    14   ar
    26    14    15   ar
    27    15    22    1
    28    22    23    1
    29    23    24    1
    30    15    16   ar
    31    16    17   ar
    32    17    18    1
    33     4     5    1
    34    35    36   ar
    35    36    32   ar
    36     5     1    1
    37    17     6   ar
    38    16    10   ar
    39    24    22    1
    40    31    37    1
    41    31    38    1
    42    27    28    1
@<TRIPOS>MOLECULE
*****
 38 42 0 0 0
SMALL
GASTEIGER

@<TRIPOS>ATOM
      1 C         143.4067  140.6755  160.8333 C.3     1  UNL1        0.0930
      2 C         144.1148  139.4663  161.3689 C.3     1  UNL1        0.0427
      3 C         144.0079  139.4913  162.8648 C.3     1  UNL1        0.0927
      4 N         143.2339  140.7159  163.2539 N.pl3   1  UNL1       -0.3033
      5 C         142.8623  141.4477  161.9983 C.3     1  UNL1        0.1104
      6 C         142.8914  141.1350  164.6529 C.ar    1  UNL1        0.0878
      7 C         143.8333  142.0102  165.4254 C.ar    1  UNL1        0.1543
      8 F         145.1177  142.4663  164.7989 F       1  UNL1       -0.2028
      9 C         143.4909  142.4293  166.8243 C.ar    1  UNL1        0.0356
     10 C         142.2065  141.9732  167.4507 C.ar    1  UNL1        0.0580
     11 C         141.8641  142.3924  168.8497 C.ar    1  UNL1        0.1996
     12 O         142.8060  143.2676  169.6222 O.2     1  UNL1       -0.2864
     13 C         140.5797  141.9363  169.4761 C.ar    1  UNL1        0.0701
     14 C         139.6378  141.0611  168.7035 C.ar    1  UNL1        0.0801
     15 N         139.9802  140.6420  167.3046 N.ar    1  UNL1       -0.3270
     16 C         141.2646  141.0981  166.6782 C.ar    1  UNL1        0.0750
     17 C         141.6071  140.6789  165.2793 C.ar    1  UNL1        0.0890
     18 CL        140.6651  139.8037  164.5067 Cl      1  UNL1       -0.0794
     19 C         140.2373  142.3554  170.8750 C.2     1  UNL1        0.0774
     20 O         140.9201  141.7047  172.0413 O.co2   1  UNL1       -0.5444
     21 O         139.2119  143.4254  171.1077 O.co2   1  UNL1       -0.5444
     22 C         139.0383  139.7668  166.5321 C.3     1  UNL1        0.0857
     23 C         138.0614  139.5834  165.4087 C.3     1  UNL1        0.0245
     24 C         138.3838  138.4344  166.3174 C.3     1  UNL1        0.0245
     25 C         141.9546  140.8574  158.6866 C.2     1  UNL1        0.2339
     26 O         140.7808  140.2961  159.4331 O.2     1  UNL1       -0.2741
     27 N         143.2676  141.0471  159.3867 N.am    1  UNL1       -0.3035
     28 H         144.0380  141.4155  158.8968 H       1  UNL1        0.1495
     29 C         141.8155  141.2290  157.2401 C.3     1  UNL1        0.1488
     30 S         141.3261  142.5952  156.8604 S.3     1  UNL1       -0.0768
     31 N         139.5897  145.9267  160.5705 N.pl3   1  UNL1       -0.3361
     32 C         140.4801  145.2184  159.5931 C.ar    1  UNL1        0.1798
     33 N         141.9290  145.5161  159.3443 N.ar    1  UNL1       -0.1254
     34 N         142.4223  144.5696  158.2903 N.ar    1  UNL1       -0.1332
     35 C         141.2783  143.6871  157.8877 C.ar    1  UNL1        0.1610
     36 S         140.0779  144.0880  158.6929 S.2     1  UNL1       -0.0247
     37 H         139.9478  146.6609  161.1201 H       1  UNL1        0.1442
     38 H         138.6472  145.6575  160.6625 H       1  UNL1        0.1442
@<TRIPOS>UNITY_ATOM_ATTR
20 1
charge -1
@<TRIPOS>BOND
     1    31    32    1
     2    32    33   ar
     3    33    34   ar
     4    34    35   ar
     5    35    30    1
     6    30    29    1
     7    29    25    1
     8    25    26    2
     9    25    27   am
    10    27     1    1
    11     1     2    1
    12     2     3    1
    13     3     4    1
    14     4     6    1
    15     6     7   ar
    16     7     8    1
    17     7     9   ar
    18     9    10   ar
    19    10    11   ar
    20    11    12    2
    21    11    13   ar
    22    13    19    1
    23    19    20   ar
    24    19    21   ar
    25    13    14   ar
    26    14    15   ar
    27    15    22    1
    28    22    23    1
    29    23    24    1
    30    15    16   ar
    31    16    17   ar
    32    17    18    1
    33     4     5    1
    34    35    36   ar
    35    36    32   ar
    36     5     1    1
    37    17     6   ar
    38    16    10   ar
    39    24    22    1
    40    31    37    1
    41    31    38    1
    42    27    28    1
@<TRIPOS>MOLECULE
*****
 38 42 0 0 0
SMALL
GASTEIGER

@<TRIPOS>ATOM
      1 C         138.3307  139.4061  161.6435 C.3     1  UNL1        0.0930
      2 C         138.4604  137.9862  162.1096 C.3     1  UNL1        0.0427
      3 C         138.9110  138.0074  163.5402 C.3     1  UNL1        0.0927
      4 N         139.0598  139.4402  163.9582 N.pl3   1  UNL1       -0.3033
      5 C         138.7012  140.3047  162.7859 C.3     1  UNL1        0.1104
      6 C         139.4915  139.9238  165.3109 C.ar    1  UNL1        0.0878
      7 C         138.6713  139.5932  166.5225 C.ar    1  UNL1        0.1543
      8 F         137.4195  138.7789  166.3814 F       1  UNL1       -0.2028
      9 C         139.1030  140.0767  167.8752 C.ar    1  UNL1        0.0356
     10 C         140.3549  140.8910  168.0163 C.ar    1  UNL1        0.0580
     11 C         140.7865  141.3745  169.3690 C.ar    1  UNL1        0.1996
     12 O         139.9664  141.0439  170.5806 O.2     1  UNL1       -0.2864
     13 C         142.0384  142.1888  169.5101 C.ar    1  UNL1        0.0701
     14 C         142.8586  142.5194  168.2985 C.ar    1  UNL1        0.0801
     15 N         142.4269  142.0358  166.9458 N.ar    1  UNL1       -0.3270
     16 C         141.1750  141.2216  166.8047 C.ar    1  UNL1        0.0750
     17 C         140.7433  140.7380  165.4520 C.ar    1  UNL1        0.0890
     18 CL        141.5635  141.0687  164.2404 Cl      1  UNL1       -0.0794
     19 C         142.4701  142.6723  170.8628 C.2     1  UNL1        0.0774
     20 O         143.4392  143.8114  170.9780 O.co2   1  UNL1       -0.5444
     21 O         141.9327  142.0168  172.1004 O.co2   1  UNL1       -0.5444
     22 C         143.2471  142.3665  165.7342 C.3     1  UNL1        0.0857
     23 C         144.2976  141.9862  164.7334 C.3     1  UNL1        0.0245
     24 C         143.6171  143.3194  164.6366 C.3     1  UNL1        0.0245
     25 C         138.8810  139.8094  159.1366 C.2     1  UNL1        0.2339
     26 O         140.2823  139.3259  159.3664 O.2     1  UNL1       -0.2741
     27 N         137.9052  139.8495  160.2751 N.am    1  UNL1       -0.3035
     28 H         136.9856  140.1668  160.1243 H       1  UNL1        0.1495
     29 C         138.4556  140.2527  157.7682 C.3     1  UNL1        0.1488
     30 S         138.7051  141.6641  157.3258 S.3     1  UNL1       -0.0768
     31 N         141.5910  145.4270  159.6478 N.pl3   1  UNL1       -0.3361
     32 C         140.5179  144.4140  159.3792 C.ar    1  UNL1        0.1798
     33 N         139.3616  144.0948  160.2797 N.ar    1  UNL1       -0.1254
     34 N         138.5417  143.0258  159.6201 N.ar    1  UNL1       -0.1332
     35 C         139.1914  142.6844  158.3119 C.ar    1  UNL1        0.1610
     36 S         140.4127  143.5423  158.1631 S.2     1  UNL1       -0.0247
     37 H         141.5739  145.9535  160.4795 H       1  UNL1        0.1442
     38 H         142.3125  145.5654  158.9923 H       1  UNL1        0.1442
@<TRIPOS>UNITY_ATOM_ATTR
20 1
charge -1
@<TRIPOS>BOND
     1    31    32    1
     2    32    33   ar
     3    33    34   ar
     4    34    35   ar
     5    35    30    1
     6    30    29    1
     7    29    25    1
     8    25    26    2
     9    25    27   am
    10    27     1    1
    11     1     2    1
    12     2     3    1
    13     3     4    1
    14     4     6    1
    15     6     7   ar
    16     7     8    1
    17     7     9   ar
    18     9    10   ar
    19    10    11   ar
    20    11    12    2
    21    11    13   ar
    22    13    19    1
    23    19    20   ar
    24    19    21   ar
    25    13    14   ar
    26    14    15   ar
    27    15    22    1
    28    22    23    1
    29    23    24    1
    30    15    16   ar
    31    16    17   ar
    32    17    18    1
    33     4     5    1
    34    35    36   ar
    35    36    32   ar
    36     5     1    1
    37    17     6   ar
    38    16    10   ar
    39    24    22    1
    40    31    37    1
    41    31    38    1
    42    27    28    1
@<TRIPOS>MOLECULE
*****
 38 42 0 0 0
SMALL
GASTEIGER

@<TRIPOS>ATOM
      1 C         140.3927  138.7085  160.3901 C.3     1  UNL1        0.0930
      2 C         139.2068  138.0030  160.9785 C.3     1  UNL1        0.0427
      3 C         139.2317  138.2139  162.4633 C.3     1  UNL1        0.0927
      4 N         140.4329  139.0498  162.7927 N.pl3   1  UNL1       -0.3033
      5 C         141.1504  139.3554  161.5114 C.3     1  UNL1        0.1104
      6 C         140.8444  139.5008  164.1629 C.ar    1  UNL1        0.0878
      7 C         141.6963  138.6127  165.0205 C.ar    1  UNL1        0.1543
      8 F         142.1368  137.2736  164.5080 F       1  UNL1       -0.2028
      9 C         142.1077  139.0638  166.3906 C.ar    1  UNL1        0.0356
     10 C         141.6672  140.4029  166.9031 C.ar    1  UNL1        0.0580
     11 C         142.0787  140.8540  168.2733 C.ar    1  UNL1        0.1996
     12 O         142.9306  139.9659  169.1309 O.2     1  UNL1       -0.2864
     13 C         141.6382  142.1931  168.7858 C.ar    1  UNL1        0.0701
     14 C         140.7862  143.0812  167.9282 C.ar    1  UNL1        0.0801
     15 N         140.3748  142.6301  166.5581 N.ar    1  UNL1       -0.3270
     16 C         140.8153  141.2910  166.0455 C.ar    1  UNL1        0.0750
     17 C         140.4039  140.8399  164.6754 C.ar    1  UNL1        0.0890
     18 CL        139.5519  141.7280  163.8178 Cl      1  UNL1       -0.0794
     19 C         142.0496  142.6442  170.1559 C.2     1  UNL1        0.0774
     20 O         141.1293  142.4360  171.3219 O.co2   1  UNL1       -0.5444
     21 O         143.3815  143.3034  170.3601 O.co2   1  UNL1       -0.5444
     22 C         139.5229  143.5182  165.7005 C.3     1  UNL1        0.0857
     23 C         139.3819  144.7167  164.8095 C.3     1  UNL1        0.0245
     24 C         138.1883  143.8580  165.1060 C.3     1  UNL1        0.0245
     25 C         141.9634  138.0184  158.4390 C.2     1  UNL1        0.2339
     26 O         142.8059  137.2287  159.3966 O.2     1  UNL1       -0.2741
     27 N         140.7568  138.7583  158.9358 N.am    1  UNL1       -0.3035
     28 H         140.2039  139.2766  158.3074 H       1  UNL1        0.1495
     29 C         142.3275  138.0682  156.9848 C.3     1  UNL1        0.1488
     30 S         143.2675  137.0494  156.4116 S.3     1  UNL1       -0.0768
     31 N         143.0622  131.8377  157.2343 N.pl3   1  UNL1       -0.3361
     32 C         142.7629  133.2130  156.7156 C.ar    1  UNL1        0.1798
     33 N         141.6890  133.5694  155.7308 N.ar    1  UNL1       -0.1254
     34 N         141.7473  135.0500  155.4971 N.ar    1  UNL1       -0.1332
     35 C         142.8572  135.6085  156.3374 C.ar    1  UNL1        0.1610
     36 S         143.4849  134.4731  157.0904 S.2     1  UNL1       -0.0247
     37 H         142.5295  131.0690  156.9269 H       1  UNL1        0.1442
     38 H         143.7913  131.7039  157.8822 H       1  UNL1        0.1442
@<TRIPOS>UNITY_ATOM_ATTR
20 1
charge -1
@<TRIPOS>BOND
     1    31    32    1
     2    32    33   ar
     3    33    34   ar
     4    34    35   ar
     5    35    30    1
     6    30    29    1
     7    29    25    1
     8    25    26    2
     9    25    27   am
    10    27     1    1
    11     1     2    1
    12     2     3    1
    13     3     4    1
    14     4     6    1
    15     6     7   ar
    16     7     8    1
    17     7     9   ar
    18     9    10   ar
    19    10    11   ar
    20    11    12    2
    21    11    13   ar
    22    13    19    1
    23    19    20   ar
    24    19    21   ar
    25    13    14   ar
    26    14    15   ar
    27    15    22    1
    28    22    23    1
    29    23    24    1
    30    15    16   ar
    31    16    17   ar
    32    17    18    1
    33     4     5    1
    34    35    36   ar
    35    36    32   ar
    36     5     1    1
    37    17     6   ar
    38    16    10   ar
    39    24    22    1
    40    31    37    1
    41    31    38    1
    42    27    28    1
@<TRIPOS>MOLECULE
*****
 38 42 0 0 0
SMALL
GASTEIGER

@<TRIPOS>ATOM
      1 C         141.1113  138.5376  160.4778 C.3     1  UNL1        0.0930
      2 C         142.2317  137.6988  161.0175 C.3     1  UNL1        0.0427
      3 C         142.2657  137.8735  162.5069 C.3     1  UNL1        0.0927
      4 N         141.1664  138.8202  162.8878 N.pl3   1  UNL1       -0.3033
      5 C         140.4529  139.2307  161.6338 C.3     1  UNL1        0.1104
      6 C         140.8381  139.2765  164.2785 C.ar    1  UNL1        0.0878
      7 C         139.7867  138.5610  165.0740 C.ar    1  UNL1        0.1543
      8 F         139.0636  137.3894  164.4788 F       1  UNL1       -0.2028
      9 C         139.4585  139.0173  166.4647 C.ar    1  UNL1        0.0356
     10 C         140.1816  140.1890  167.0599 C.ar    1  UNL1        0.0580
     11 C         139.8533  140.6452  168.4507 C.ar    1  UNL1        0.1996
     12 O         138.8019  139.9298  169.2461 O.2     1  UNL1       -0.2864
     13 C         140.5764  141.8169  169.0459 C.ar    1  UNL1        0.0701
     14 C         141.6278  142.5323  168.2504 C.ar    1  UNL1        0.0801
     15 N         141.9560  142.0761  166.8597 N.ar    1  UNL1       -0.3270
     16 C         141.2329  140.9044  166.2645 C.ar    1  UNL1        0.0750
     17 C         141.5612  140.4481  164.8738 C.ar    1  UNL1        0.0890
     18 CL        142.6126  141.1636  164.0783 Cl      1  UNL1       -0.0794
     19 C         140.2481  142.2731  170.4366 C.2     1  UNL1        0.0774
     20 O         139.6314  143.6226  170.6572 O.co2   1  UNL1       -0.5444
     21 O         140.5365  141.3799  171.6067 O.co2   1  UNL1       -0.5444
     22 C         143.0074  142.7915  166.0642 C.3     1  UNL1        0.0857
     23 C         143.3847  143.7168  164.9456 C.3     1  UNL1        0.0245
     24 C         144.4511  143.1053  165.8051 C.3     1  UNL1        0.0245
     25 C         141.4147  139.6529  158.1510 C.2     1  UNL1        0.2339
     26 O         142.5040  140.5203  158.7089 O.2     1  UNL1       -0.2741
     27 N         140.7184  138.6615  159.0356 N.am    1  UNL1       -0.3035
     28 H         140.0034  138.0922  158.6695 H       1  UNL1        0.1495
     29 C         141.0217  139.7769  156.7088 C.3     1  UNL1        0.1488
     30 S         141.0851  138.5787  155.8085 S.3     1  UNL1       -0.0768
     31 N         144.2595  134.3768  156.1922 N.pl3   1  UNL1       -0.3361
     32 C         143.7660  135.7772  155.9793 C.ar    1  UNL1        0.1798
     33 N         144.6081  136.9621  155.6094 N.ar    1  UNL1       -0.1254
     34 N         143.7064  138.1558  155.5004 N.ar    1  UNL1       -0.1332
     35 C         142.3069  137.7086  155.8029 C.ar    1  UNL1        0.1610
     36 S         142.3438  136.2386  156.0989 S.2     1  UNL1       -0.0247
     37 H         145.2169  134.1714  156.0901 H       1  UNL1        0.1442
     38 H         143.6260  133.6631  156.4340 H       1  UNL1        0.1442
@<TRIPOS>UNITY_ATOM_ATTR
20 1
charge -1
@<TRIPOS>BOND
     1    31    32    1
     2    32    33   ar
     3    33    34   ar
     4    34    35   ar
     5    35    30    1
     6    30    29    1
     7    29    25    1
     8    25    26    2
     9    25    27   am
    10    27     1    1
    11     1     2    1
    12     2     3    1
    13     3     4    1
    14     4     6    1
    15     6     7   ar
    16     7     8    1
    17     7     9   ar
    18     9    10   ar
    19    10    11   ar
    20    11    12    2
    21    11    13   ar
    22    13    19    1
    23    19    20   ar
    24    19    21   ar
    25    13    14   ar
    26    14    15   ar
    27    15    22    1
    28    22    23    1
    29    23    24    1
    30    15    16   ar
    31    16    17   ar
    32    17    18    1
    33     4     5    1
    34    35    36   ar
    35    36    32   ar
    36     5     1    1
    37    17     6   ar
    38    16    10   ar
    39    24    22    1
    40    31    37    1
    41    31    38    1
    42    27    28    1
@<TRIPOS>MOLECULE
*****
 38 42 0 0 0
SMALL
GASTEIGER

@<TRIPOS>ATOM
      1 C         143.6392  140.9195  160.8304 C.3     1  UNL1        0.0930
      2 C         144.0700  139.5624  161.3025 C.3     1  UNL1        0.0427
      3 C         143.8597  139.4994  162.7863 C.3     1  UNL1        0.0927
      4 N         143.2991  140.8176  163.2314 N.pl3   1  UNL1       -0.3033
      5 C         143.1628  141.6952  162.0226 C.3     1  UNL1        0.1104
      6 C         142.9380  141.1923  164.6383 C.ar    1  UNL1        0.0878
      7 C         143.8606  142.0580  165.4441 C.ar    1  UNL1        0.1543
      8 F         145.1442  142.5490  164.8431 F       1  UNL1       -0.2028
      9 C         143.4995  142.4327  166.8509 C.ar    1  UNL1        0.0356
     10 C         142.2159  141.9417  167.4519 C.ar    1  UNL1        0.0580
     11 C         141.8549  142.3164  168.8588 C.ar    1  UNL1        0.1996
     12 O         142.7774  143.1822  169.6646 O.2     1  UNL1       -0.2864
     13 C         140.5712  141.8254  169.4599 C.ar    1  UNL1        0.0701
     14 C         139.6487  140.9596  168.6540 C.ar    1  UNL1        0.0801
     15 N         140.0097  140.5849  167.2471 N.ar    1  UNL1       -0.3270
     16 C         141.2933  141.0760  166.6461 C.ar    1  UNL1        0.0750
     17 C         141.6544  140.7013  165.2393 C.ar    1  UNL1        0.0890
     18 CL        140.7318  139.8355  164.4334 Cl      1  UNL1       -0.0794
     19 C         140.2102  142.2001  170.8667 C.2     1  UNL1        0.0774
     20 O         139.3043  143.3679  171.1228 O.co2   1  UNL1       -0.5444
     21 O         140.7550  141.4070  172.0174 O.co2   1  UNL1       -0.5444
     22 C         139.0872  139.7192  166.4413 C.3     1  UNL1        0.0857
     23 C         138.0707  139.5688  165.3485 C.3     1  UNL1        0.0245
     24 C         138.5056  138.3702  166.1384 C.3     1  UNL1        0.0245
     25 C         142.5260  141.1423  158.4935 C.2     1  UNL1        0.2339
     26 O         141.3350  140.3759  158.9879 O.2     1  UNL1       -0.2741
     27 N         143.6781  141.4141  159.4148 N.am    1  UNL1       -0.3035
     28 H         144.4598  141.9170  159.0904 H       1  UNL1        0.1495
     29 C         142.5649  141.6368  157.0779 C.3     1  UNL1        0.1488
     30 S         143.6242  142.6098  156.6522 S.3     1  UNL1       -0.0768
     31 N         148.6979  141.5266  155.6709 N.pl3   1  UNL1       -0.3361
     32 C         147.2067  141.6164  155.5371 C.ar    1  UNL1        0.1798
     33 N         146.3905  141.0871  154.3953 N.ar    1  UNL1       -0.1254
     34 N         144.9491  141.3949  154.6741 N.ar    1  UNL1       -0.1332
     35 C         144.8745  142.1143  155.9881 C.ar    1  UNL1        0.1610
     36 S         146.2698  142.2512  156.5214 S.2     1  UNL1       -0.0247
     37 H         149.2297  141.0882  154.9679 H       1  UNL1        0.1442
     38 H         149.1449  141.9061  156.4617 H       1  UNL1        0.1442
@<TRIPOS>UNITY_ATOM_ATTR
20 1
charge -1
@<TRIPOS>BOND
     1    31    32    1
     2    32    33   ar
     3    33    34   ar
     4    34    35   ar
     5    35    30    1
     6    30    29    1
     7    29    25    1
     8    25    26    2
     9    25    27   am
    10    27     1    1
    11     1     2    1
    12     2     3    1
    13     3     4    1
    14     4     6    1
    15     6     7   ar
    16     7     8    1
    17     7     9   ar
    18     9    10   ar
    19    10    11   ar
    20    11    12    2
    21    11    13   ar
    22    13    19    1
    23    19    20   ar
    24    19    21   ar
    25    13    14   ar
    26    14    15   ar
    27    15    22    1
    28    22    23    1
    29    23    24    1
    30    15    16   ar
    31    16    17   ar
    32    17    18    1
    33     4     5    1
    34    35    36   ar
    35    36    32   ar
    36     5     1    1
    37    17     6   ar
    38    16    10   ar
    39    24    22    1
    40    31    37    1
    41    31    38    1
    42    27    28    1
@<TRIPOS>MOLECULE
*****
 38 42 0 0 0
SMALL
GASTEIGER

@<TRIPOS>ATOM
      1 C         139.8439  142.7685  160.2056 C.3     1  UNL1        0.0930
      2 C         138.5270  142.1091  160.4902 C.3     1  UNL1        0.0427
      3 C         138.3801  141.9899  161.9782 C.3     1  UNL1        0.0927
      4 N         139.6062  142.5757  162.6133 N.pl3   1  UNL1       -0.3033
      5 C         140.5109  143.0569  161.5178 C.3     1  UNL1        0.1104
      6 C         139.8798  142.6648  164.0856 C.ar    1  UNL1        0.0878
      7 C         139.2286  143.7386  164.9058 C.ar    1  UNL1        0.1543
      8 F         138.3039  144.7235  164.2538 F       1  UNL1       -0.2028
      9 C         139.5021  143.8276  166.3779 C.ar    1  UNL1        0.0356
     10 C         140.4268  142.8427  167.0298 C.ar    1  UNL1        0.0580
     11 C         140.7003  142.9317  168.5020 C.ar    1  UNL1        0.1996
     12 O         140.0492  144.0056  169.3222 O.2     1  UNL1       -0.2864
     13 C         141.6250  141.9469  169.1539 C.ar    1  UNL1        0.0701
     14 C         142.2762  140.8730  168.3336 C.ar    1  UNL1        0.0801
     15 N         142.0026  140.7840  166.8615 N.ar    1  UNL1       -0.3270
     16 C         141.0780  141.7689  166.2096 C.ar    1  UNL1        0.0750
     17 C         140.8044  141.6799  164.7375 C.ar    1  UNL1        0.0890
     18 CL        141.4556  140.6060  163.9172 Cl      1  UNL1       -0.0794
     19 C         141.8985  142.0359  170.6261 C.2     1  UNL1        0.0774
     20 O         142.7277  143.1622  171.1681 O.co2   1  UNL1       -0.5444
     21 O         141.3429  140.9984  171.5562 O.co2   1  UNL1       -0.5444
     22 C         142.6538  139.7101  166.0413 C.3     1  UNL1        0.0857
     23 C         143.7832  139.2458  165.1702 C.3     1  UNL1        0.0245
     24 C         142.6522  138.3145  165.4917 C.3     1  UNL1        0.0245
     25 C         140.4631  144.5068  158.3767 C.2     1  UNL1        0.2339
     26 O         139.9766  145.6139  159.2643 O.2     1  UNL1       -0.2741
     27 N         140.3967  143.0841  158.8474 N.am    1  UNL1       -0.3035
     28 H         140.7160  142.3574  158.2649 H       1  UNL1        0.1495
     29 C         141.0159  144.8224  157.0185 C.3     1  UNL1        0.1488
     30 S         140.0847  145.0911  155.8736 S.3     1  UNL1       -0.0768
     31 N         138.1547  150.0054  155.9430 N.pl3   1  UNL1       -0.3361
     32 C         138.8770  148.7623  155.5152 C.ar    1  UNL1        0.1798
     33 N         139.6645  148.5915  154.2501 N.ar    1  UNL1       -0.1254
     34 N         140.2128  147.1954  154.2304 N.ar    1  UNL1       -0.1332
     35 C         139.7641  146.5035  155.4833 C.ar    1  UNL1        0.1610
     36 S         138.9385  147.4719  156.2773 S.2     1  UNL1       -0.0247
     37 H         138.1727  150.8066  155.3712 H       1  UNL1        0.1442
     38 H         137.6626  150.0200  156.7956 H       1  UNL1        0.1442
@<TRIPOS>UNITY_ATOM_ATTR
20 1
charge -1
@<TRIPOS>BOND
     1    31    32    1
     2    32    33   ar
     3    33    34   ar
     4    34    35   ar
     5    35    30    1
     6    30    29    1
     7    29    25    1
     8    25    26    2
     9    25    27   am
    10    27     1    1
    11     1     2    1
    12     2     3    1
    13     3     4    1
    14     4     6    1
    15     6     7   ar
    16     7     8    1
    17     7     9   ar
    18     9    10   ar
    19    10    11   ar
    20    11    12    2
    21    11    13   ar
    22    13    19    1
    23    19    20   ar
    24    19    21   ar
    25    13    14   ar
    26    14    15   ar
    27    15    22    1
    28    22    23    1
    29    23    24    1
    30    15    16   ar
    31    16    17   ar
    32    17    18    1
    33     4     5    1
    34    35    36   ar
    35    36    32   ar
    36     5     1    1
    37    17     6   ar
    38    16    10   ar
    39    24    22    1
    40    31    37    1
    41    31    38    1
    42    27    28    1
