@<TRIPOS>MOLECULE
*****
 31 33 0 0 0
SMALL
GASTEIGER

@<TRIPOS>ATOM
      1 S         138.7271  139.0033  165.5435 S.3     1  UNL1       -0.1307
      2 C         139.4254  138.0197  164.6519 C.3     1  UNL1        0.0755
      3 C         139.8157  138.4160  163.2588 C.3     1  UNL1        0.0840
      4 N         142.9411  141.5888  162.6142 N.3     1  UNL1       -0.2706
      5 C         141.5714  141.7547  162.0257 C.3     1  UNL1        0.0736
      6 C         141.2435  142.9782  161.2223 C.3     1  UNL1        0.0188
      7 C         140.5296  140.6971  162.2406 C.3     1  UNL1        0.0883
      8 N         140.8575  139.4736  163.0440 N.3     1  UNL1       -0.2696
      9 C         142.2272  139.3077  163.6325 C.3     1  UNL1        0.0883
     10 C         143.2690  140.3653  163.4176 C.3     1  UNL1        0.0736
     11 C         144.6387  140.1993  164.0062 C.3     1  UNL1        0.0188
     12 C         143.9829  142.6464  162.3993 C.3     1  UNL1        0.1017
     13 C         144.1377  143.7439  164.7491 C.3     1  UNL1        0.0332
     14 C         143.9947  143.8737  163.2616 C.3     1  UNL1        0.1265
     15 O         143.8634  145.2309  162.6364 O.3     1  UNL1       -0.3830
     16 H         143.8896  145.9097  163.3287 H       1  UNL1        0.2104
     17 C         139.4767  140.1803  166.0939 C.3     1  UNL1        0.0920
     18 C         139.3517  141.5229  165.4368 C.ar    1  UNL1       -0.0083
     19 C         138.1118  141.8686  164.6668 C.ar    1  UNL1       -0.0008
     20 C         137.9868  143.2112  164.0097 C.ar    1  UNL1        0.0294
     21 C         139.1019  144.2081  164.1225 C.ar    1  UNL1        0.1401
     22 F         138.9770  145.5507  163.4653 F       1  UNL1       -0.2042
     23 C         140.3420  143.8624  164.8924 C.ar    1  UNL1        0.0294
     24 C         140.4669  142.5198  165.5496 C.ar    1  UNL1       -0.0008
     25 C         140.3510  140.0147  167.3014 C.ar    1  UNL1       -0.0083
     26 C         141.8056  139.6881  167.1350 C.ar    1  UNL1       -0.0008
     27 C         142.6800  139.5225  168.3425 C.ar    1  UNL1        0.0294
     28 C         142.0998  139.6836  169.7164 C.ar    1  UNL1        0.1401
     29 F         142.9742  139.5180  170.9238 F       1  UNL1       -0.2042
     30 C         140.6453  140.0102  169.8827 C.ar    1  UNL1        0.0294
     31 C         139.7709  140.1758  168.6753 C.ar    1  UNL1       -0.0008
@<TRIPOS>BOND
     1    13    14    1
     2    14    15    1
     3    14    12    1
     4    12     4    1
     5     4     5    1
     6     5     6    1
     7     5     7    1
     8     7     8    1
     9     8     3    1
    10     3     2    1
    11     2     1    1
    12     1    17    1
    13    17    18    1
    14    18    19   ar
    15    19    20   ar
    16    20    21   ar
    17    21    22    1
    18    21    23   ar
    19    23    24   ar
    20    17    25    1
    21    25    26   ar
    22    26    27   ar
    23    27    28   ar
    24    28    29    1
    25    28    30   ar
    26    30    31   ar
    27     8     9    1
    28     9    10    1
    29    10    11    1
    30    10     4    1
    31    24    18   ar
    32    31    25   ar
    33    15    16    1
@<TRIPOS>MOLECULE
*****
 31 33 0 0 0
SMALL
GASTEIGER

@<TRIPOS>ATOM
      1 S         138.7981  138.9654  165.5407 S.3     1  UNL1       -0.1307
      2 C         139.5519  137.9251  164.7665 C.3     1  UNL1        0.0755
      3 C         140.0221  138.2213  163.3732 C.3     1  UNL1        0.0840
      4 N         143.0246  141.4965  162.6602 N.3     1  UNL1       -0.2706
      5 C         143.4130  140.2819  163.4500 C.3     1  UNL1        0.0736
      6 C         144.8022  140.1590  164.0023 C.3     1  UNL1        0.0188
      7 C         142.4121  139.1901  163.6877 C.3     1  UNL1        0.0883
      8 N         141.0229  139.3130  163.1356 N.3     1  UNL1       -0.2696
      9 C         140.6345  140.5276  162.3457 C.3     1  UNL1        0.0883
     10 C         141.6353  141.6193  162.1081 C.3     1  UNL1        0.0736
     11 C         141.2469  142.8340  161.3182 C.3     1  UNL1        0.0188
     12 C         144.0254  142.5882  162.4226 C.3     1  UNL1        0.1017
     13 C         144.1348  143.7399  164.7488 C.3     1  UNL1        0.0332
     14 C         143.9901  143.8330  163.2587 C.3     1  UNL1        0.1265
     15 O         143.8102  145.1710  162.6047 O.3     1  UNL1       -0.3830
     16 H         143.8100  145.8648  163.2826 H       1  UNL1        0.2104
     17 C         139.5215  140.1544  166.1004 C.3     1  UNL1        0.0920
     18 C         139.3803  141.4956  165.4437 C.ar    1  UNL1       -0.0083
     19 C         140.4967  142.4937  165.5292 C.ar    1  UNL1       -0.0008
     20 C         140.3556  143.8349  164.8725 C.ar    1  UNL1        0.0294
     21 C         139.0980  144.1780  164.1304 C.ar    1  UNL1        0.1401
     22 F         138.9569  145.5193  163.4737 F       1  UNL1       -0.2042
     23 C         137.9815  143.1799  164.0449 C.ar    1  UNL1        0.0294
     24 C         138.1227  141.8387  164.7016 C.ar    1  UNL1       -0.0008
     25 C         140.3859  140.0021  167.3168 C.ar    1  UNL1       -0.0083
     26 C         141.8343  139.6418  167.1672 C.ar    1  UNL1       -0.0008
     27 C         142.6987  139.4895  168.3836 C.ar    1  UNL1        0.0294
     28 C         142.1148  139.6975  169.7495 C.ar    1  UNL1        0.1401
     29 F         142.9792  139.5453  170.9658 F       1  UNL1       -0.2042
     30 C         140.6664  140.0579  169.8991 C.ar    1  UNL1        0.0294
     31 C         139.8020  140.2102  168.6827 C.ar    1  UNL1       -0.0008
@<TRIPOS>BOND
     1    13    14    1
     2    14    15    1
     3    14    12    1
     4    12     4    1
     5     4     5    1
     6     5     6    1
     7     5     7    1
     8     7     8    1
     9     8     3    1
    10     3     2    1
    11     2     1    1
    12     1    17    1
    13    17    18    1
    14    18    19   ar
    15    19    20   ar
    16    20    21   ar
    17    21    22    1
    18    21    23   ar
    19    23    24   ar
    20    17    25    1
    21    25    26   ar
    22    26    27   ar
    23    27    28   ar
    24    28    29    1
    25    28    30   ar
    26    30    31   ar
    27     8     9    1
    28     9    10    1
    29    10    11    1
    30    10     4    1
    31    24    18   ar
    32    31    25   ar
    33    15    16    1
@<TRIPOS>MOLECULE
*****
 31 33 0 0 0
SMALL
GASTEIGER

@<TRIPOS>ATOM
      1 S         138.6340  139.0337  165.6096 S.3     1  UNL1       -0.1307
      2 C         139.2839  138.0172  164.7183 C.3     1  UNL1        0.0755
      3 C         139.6731  138.3872  163.3178 C.3     1  UNL1        0.0840
      4 N         142.8362  141.5091  162.6118 N.3     1  UNL1       -0.2706
      5 C         141.4660  141.6841  162.0272 C.3     1  UNL1        0.0736
      6 C         141.1501  142.8998  161.2071 C.3     1  UNL1        0.0188
      7 C         140.4117  140.6435  162.2625 C.3     1  UNL1        0.0883
      8 N         140.7275  139.4278  163.0825 N.3     1  UNL1       -0.2696
      9 C         142.0977  139.2529  163.6672 C.3     1  UNL1        0.0883
     10 C         143.1520  140.2935  163.4318 C.3     1  UNL1        0.0736
     11 C         144.5223  140.1185  164.0166 C.3     1  UNL1        0.0188
     12 C         143.8906  142.5498  162.3765 C.3     1  UNL1        0.1017
     13 C         144.1453  143.6980  164.6931 C.3     1  UNL1        0.0332
     14 C         143.9164  143.7940  163.2138 C.3     1  UNL1        0.1265
     15 O         143.7132  145.1344  162.5717 O.3     1  UNL1       -0.3830
     16 H         143.7591  145.8275  163.2488 H       1  UNL1        0.2104
     17 C         139.4306  140.1930  166.1305 C.3     1  UNL1        0.0920
     18 C         140.3263  140.0133  167.3203 C.ar    1  UNL1       -0.0083
     19 C         139.7801  140.1982  168.7050 C.ar    1  UNL1       -0.0008
     20 C         140.6758  140.0185  169.8947 C.ar    1  UNL1        0.0294
     21 C         142.1177  139.6538  169.6997 C.ar    1  UNL1        0.1401
     22 F         143.0134  139.4741  170.8894 F       1  UNL1       -0.2042
     23 C         142.6639  139.4689  168.3149 C.ar    1  UNL1        0.0294
     24 C         141.7682  139.6486  167.1252 C.ar    1  UNL1       -0.0008
     25 C         139.3315  141.5320  165.4618 C.ar    1  UNL1       -0.0083
     26 C         140.4737  142.5004  165.5494 C.ar    1  UNL1       -0.0008
     27 C         140.3745  143.8395  164.8806 C.ar    1  UNL1        0.0294
     28 C         139.1333  144.2101  164.1243 C.ar    1  UNL1        0.1401
     29 F         139.0342  145.5490  163.4556 F       1  UNL1       -0.2042
     30 C         137.9912  143.2416  164.0368 C.ar    1  UNL1        0.0294
     31 C         138.0902  141.9027  164.7055 C.ar    1  UNL1       -0.0008
@<TRIPOS>BOND
     1    13    14    1
     2    14    15    1
     3    14    12    1
     4    12     4    1
     5     4     5    1
     6     5     6    1
     7     5     7    1
     8     7     8    1
     9     8     3    1
    10     3     2    1
    11     2     1    1
    12     1    17    1
    13    17    18    1
    14    18    19   ar
    15    19    20   ar
    16    20    21   ar
    17    21    22    1
    18    21    23   ar
    19    23    24   ar
    20    17    25    1
    21    25    26   ar
    22    26    27   ar
    23    27    28   ar
    24    28    29    1
    25    28    30   ar
    26    30    31   ar
    27     8     9    1
    28     9    10    1
    29    10    11    1
    30    10     4    1
    31    24    18   ar
    32    31    25   ar
    33    15    16    1
@<TRIPOS>MOLECULE
*****
 31 33 0 0 0
SMALL
GASTEIGER

@<TRIPOS>ATOM
      1 S         138.5730  139.0532  165.7136 S.3     1  UNL1       -0.1307
      2 C         139.2025  137.9269  164.9486 C.3     1  UNL1        0.0755
      3 C         139.6587  138.1424  163.5360 C.3     1  UNL1        0.0840
      4 N         143.0122  141.0147  162.6680 N.3     1  UNL1       -0.2706
      5 C         143.2784  139.7677  163.4579 C.3     1  UNL1        0.0736
      6 C         144.6624  139.4780  163.9585 C.3     1  UNL1        0.0188
      7 C         142.1605  138.8102  163.7472 C.3     1  UNL1        0.0883
      8 N         140.7765  139.0998  163.2467 N.3     1  UNL1       -0.2696
      9 C         140.5104  140.3469  162.4568 C.3     1  UNL1        0.0883
     10 C         141.6282  141.3043  162.1674 C.3     1  UNL1        0.0736
     11 C         141.3620  142.5514  161.3775 C.3     1  UNL1        0.0188
     12 C         144.1301  141.9722  162.3787 C.3     1  UNL1        0.1017
     13 C         144.3437  143.1602  164.6793 C.3     1  UNL1        0.0332
     14 C         144.2665  143.2309  163.1829 C.3     1  UNL1        0.1265
     15 O         144.3257  144.5604  162.4909 O.3     1  UNL1       -0.3830
     16 H         144.4137  145.2652  163.1515 H       1  UNL1        0.2104
     17 C         139.4171  140.1948  166.1978 C.3     1  UNL1        0.0920
     18 C         140.3283  140.0074  167.3744 C.ar    1  UNL1       -0.0083
     19 C         139.7982  140.1740  168.7677 C.ar    1  UNL1       -0.0008
     20 C         140.7095  139.9866  169.9443 C.ar    1  UNL1        0.0294
     21 C         142.1509  139.6326  169.7277 C.ar    1  UNL1        0.1401
     22 F         143.0622  139.4452  170.9043 F       1  UNL1       -0.2042
     23 C         142.6811  139.4660  168.3344 C.ar    1  UNL1        0.0294
     24 C         141.7698  139.6534  167.1578 C.ar    1  UNL1       -0.0008
     25 C         139.3498  141.5237  165.5055 C.ar    1  UNL1       -0.0083
     26 C         140.5088  142.4723  165.5887 C.ar    1  UNL1       -0.0008
     27 C         140.4414  143.8013  164.8963 C.ar    1  UNL1        0.0294
     28 C         139.2152  144.1816  164.1207 C.ar    1  UNL1        0.1401
     29 F         139.1479  145.5105  163.4284 F       1  UNL1       -0.2042
     30 C         138.0562  143.2330  164.0375 C.ar    1  UNL1        0.0294
     31 C         138.1235  141.9041  164.7298 C.ar    1  UNL1       -0.0008
@<TRIPOS>BOND
     1    13    14    1
     2    14    15    1
     3    14    12    1
     4    12     4    1
     5     4     5    1
     6     5     6    1
     7     5     7    1
     8     7     8    1
     9     8     3    1
    10     3     2    1
    11     2     1    1
    12     1    17    1
    13    17    18    1
    14    18    19   ar
    15    19    20   ar
    16    20    21   ar
    17    21    22    1
    18    21    23   ar
    19    23    24   ar
    20    17    25    1
    21    25    26   ar
    22    26    27   ar
    23    27    28   ar
    24    28    29    1
    25    28    30   ar
    26    30    31   ar
    27     8     9    1
    28     9    10    1
    29    10    11    1
    30    10     4    1
    31    24    18   ar
    32    31    25   ar
    33    15    16    1
@<TRIPOS>MOLECULE
*****
 31 33 0 0 0
SMALL
GASTEIGER

@<TRIPOS>ATOM
      1 S         142.9886  138.5964  165.1442 S.3     1  UNL1       -0.1307
      2 C         141.9557  137.9243  164.2891 C.3     1  UNL1        0.0755
      3 C         141.6313  138.4754  162.9322 C.3     1  UNL1        0.0840
      4 N         139.6171  142.4816  162.5536 N.3     1  UNL1       -0.2706
      5 C         140.8922  142.2102  161.8118 C.3     1  UNL1        0.0736
      6 C         141.4960  143.2741  160.9437 C.3     1  UNL1        0.0188
      7 C         141.5636  140.8748  161.9380 C.3     1  UNL1        0.0883
      8 N         140.9599  139.8108  162.8060 N.3     1  UNL1       -0.2696
      9 C         139.6847  140.0823  163.5478 C.3     1  UNL1        0.0883
     10 C         139.0133  141.4177  163.4216 C.3     1  UNL1        0.0736
     11 C         137.7381  141.6891  164.1634 C.3     1  UNL1        0.0188
     12 C         138.9457  143.8170  162.4273 C.3     1  UNL1        0.1017
     13 C         139.0362  144.9193  164.7782 C.3     1  UNL1        0.0332
     14 C         139.3620  144.9526  163.3144 C.3     1  UNL1        0.1265
     15 O         140.1042  146.1217  162.7377 O.3     1  UNL1       -0.3830
     16 H         140.2960  146.7617  163.4409 H       1  UNL1        0.2104
     17 C         142.6637  139.8855  165.8392 C.3     1  UNL1        0.0920
     18 C         143.0520  141.1928  165.2146 C.ar    1  UNL1       -0.0083
     19 C         144.3502  141.3135  164.4730 C.ar    1  UNL1       -0.0008
     20 C         144.7385  142.6208  163.8484 C.ar    1  UNL1        0.0294
     21 C         143.8286  143.8075  163.9654 C.ar    1  UNL1        0.1401
     22 F         144.2169  145.1148  163.3408 F       1  UNL1       -0.2042
     23 C         142.5302  143.6868  164.7070 C.ar    1  UNL1        0.0294
     24 C         142.1420  142.3795  165.3316 C.ar    1  UNL1       -0.0008
     25 C         141.9505  139.8671  167.1586 C.ar    1  UNL1       -0.0083
     26 C         142.7136  139.5894  168.4198 C.ar    1  UNL1       -0.0008
     27 C         142.0003  139.5711  169.7393 C.ar    1  UNL1        0.0294
     28 C         140.5241  139.8305  169.7975 C.ar    1  UNL1        0.1401
     29 F         139.8109  139.8122  171.1170 F       1  UNL1       -0.2042
     30 C         139.7610  140.1082  168.5363 C.ar    1  UNL1        0.0294
     31 C         140.4742  140.1265  167.2169 C.ar    1  UNL1       -0.0008
@<TRIPOS>BOND
     1    13    14    1
     2    14    15    1
     3    14    12    1
     4    12     4    1
     5     4     5    1
     6     5     6    1
     7     5     7    1
     8     7     8    1
     9     8     3    1
    10     3     2    1
    11     2     1    1
    12     1    17    1
    13    17    18    1
    14    18    19   ar
    15    19    20   ar
    16    20    21   ar
    17    21    22    1
    18    21    23   ar
    19    23    24   ar
    20    17    25    1
    21    25    26   ar
    22    26    27   ar
    23    27    28   ar
    24    28    29    1
    25    28    30   ar
    26    30    31   ar
    27     8     9    1
    28     9    10    1
    29    10    11    1
    30    10     4    1
    31    24    18   ar
    32    31    25   ar
    33    15    16    1
@<TRIPOS>MOLECULE
*****
 31 33 0 0 0
SMALL
GASTEIGER

@<TRIPOS>ATOM
      1 S         142.7978  138.4866  165.1740 S.3     1  UNL1       -0.1307
      2 C         141.7344  137.9214  164.2798 C.3     1  UNL1        0.0755
      3 C         141.5404  138.4781  162.9006 C.3     1  UNL1        0.0840
      4 N         139.6572  142.5284  162.3534 N.3     1  UNL1       -0.2706
      5 C         138.9478  141.4726  163.1484 C.3     1  UNL1        0.0736
      6 C         137.6105  141.7669  163.7611 C.3     1  UNL1        0.0188
      7 C         139.5755  140.1225  163.3308 C.3     1  UNL1        0.0883
      8 N         140.9127  139.8282  162.7182 N.3     1  UNL1       -0.2696
      9 C         141.6221  140.8840  161.9232 C.3     1  UNL1        0.0883
     10 C         140.9944  142.2340  161.7409 C.3     1  UNL1        0.0736
     11 C         141.7039  143.2898  160.9458 C.3     1  UNL1        0.0188
     12 C         139.0295  143.8784  162.1711 C.3     1  UNL1        0.1017
     13 C         139.1017  144.9054  164.5564 C.3     1  UNL1        0.0332
     14 C         139.3965  145.0064  163.0892 C.3     1  UNL1        0.1265
     15 O         140.0584  146.2354  162.5400 O.3     1  UNL1       -0.3830
     16 H         140.2265  146.8618  163.2613 H       1  UNL1        0.2104
     17 C         142.5672  139.7877  165.8841 C.3     1  UNL1        0.0920
     18 C         141.9002  139.8009  167.2276 C.ar    1  UNL1       -0.0083
     19 C         140.4258  140.0569  167.3305 C.ar    1  UNL1       -0.0008
     20 C         139.7589  140.0702  168.6740 C.ar    1  UNL1        0.0294
     21 C         140.5663  139.8274  169.9146 C.ar    1  UNL1        0.1401
     22 F         139.8993  139.8407  171.2581 F       1  UNL1       -0.2042
     23 C         142.0407  139.5714  169.8117 C.ar    1  UNL1        0.0294
     24 C         142.7077  139.5581  168.4682 C.ar    1  UNL1       -0.0008
     25 C         143.0034  141.0754  165.2506 C.ar    1  UNL1       -0.0083
     26 C         142.1193  142.2849  165.3243 C.ar    1  UNL1       -0.0008
     27 C         142.5556  143.5727  164.6908 C.ar    1  UNL1        0.0294
     28 C         143.8761  143.6509  163.9836 C.ar    1  UNL1        0.1401
     29 F         144.3123  144.9387  163.3501 F       1  UNL1       -0.2042
     30 C         144.7602  142.4415  163.9098 C.ar    1  UNL1        0.0294
     31 C         144.3240  141.1538  164.5433 C.ar    1  UNL1       -0.0008
@<TRIPOS>BOND
     1    13    14    1
     2    14    15    1
     3    14    12    1
     4    12     4    1
     5     4     5    1
     6     5     6    1
     7     5     7    1
     8     7     8    1
     9     8     3    1
    10     3     2    1
    11     2     1    1
    12     1    17    1
    13    17    18    1
    14    18    19   ar
    15    19    20   ar
    16    20    21   ar
    17    21    22    1
    18    21    23   ar
    19    23    24   ar
    20    17    25    1
    21    25    26   ar
    22    26    27   ar
    23    27    28   ar
    24    28    29    1
    25    28    30   ar
    26    30    31   ar
    27     8     9    1
    28     9    10    1
    29    10    11    1
    30    10     4    1
    31    24    18   ar
    32    31    25   ar
    33    15    16    1
@<TRIPOS>MOLECULE
*****
 31 33 0 0 0
SMALL
GASTEIGER

@<TRIPOS>ATOM
      1 S         142.6051  139.1401  166.7244 S.3     1  UNL1       -0.1307
      2 C         143.5246  139.3127  165.5519 C.3     1  UNL1        0.0755
      3 C         143.8903  140.6894  165.0819 C.3     1  UNL1        0.0840
      4 N         141.1403  142.9248  162.3087 N.3     1  UNL1       -0.2706
      5 C         141.6744  143.5975  163.5384 C.3     1  UNL1        0.0736
      6 C         141.2918  145.0155  163.8437 C.3     1  UNL1        0.0188
      7 C         142.5910  142.8524  164.4628 C.3     1  UNL1        0.0883
      8 N         142.9736  141.4345  164.1575 N.3     1  UNL1       -0.2696
      9 C         142.4395  140.7618  162.9279 C.3     1  UNL1        0.0883
     10 C         141.5229  141.5069  162.0035 C.3     1  UNL1        0.0736
     11 C         140.9888  140.8340  160.7738 C.3     1  UNL1        0.0188
     12 C         140.2236  143.6699  161.3843 C.3     1  UNL1        0.1017
     13 C         137.9936  143.6975  162.7170 C.3     1  UNL1        0.0332
     14 C         138.7435  143.4341  161.4450 C.3     1  UNL1        0.1265
     15 O         138.0133  142.9349  160.2335 O.3     1  UNL1       -0.3830
     16 H         137.0710  142.8370  160.4415 H       1  UNL1        0.2104
     17 C         141.2246  139.7257  166.6875 C.3     1  UNL1        0.0920
     18 C         140.3119  139.4228  165.5363 C.ar    1  UNL1       -0.0083
     19 C         139.4075  140.4901  164.9952 C.ar    1  UNL1       -0.0008
     20 C         138.4949  140.1871  163.8440 C.ar    1  UNL1        0.0294
     21 C         138.4866  138.8169  163.2339 C.ar    1  UNL1        0.1401
     22 F         137.5740  138.5140  162.0826 F       1  UNL1       -0.2042
     23 C         139.3911  137.7495  163.7750 C.ar    1  UNL1        0.0294
     24 C         140.3037  138.0524  164.9262 C.ar    1  UNL1       -0.0008
     25 C         140.7568  140.6142  167.8018 C.ar    1  UNL1       -0.0083
     26 C         139.8011  140.0869  168.8307 C.ar    1  UNL1       -0.0008
     27 C         139.3333  140.9755  169.9450 C.ar    1  UNL1        0.0294
     28 C         139.8211  142.3913  170.0304 C.ar    1  UNL1        0.1401
     29 F         139.3533  143.2798  171.1447 F       1  UNL1       -0.2042
     30 C         140.7768  142.9186  169.0016 C.ar    1  UNL1        0.0294
     31 C         141.2446  142.0301  167.8873 C.ar    1  UNL1       -0.0008
@<TRIPOS>BOND
     1    13    14    1
     2    14    15    1
     3    14    12    1
     4    12     4    1
     5     4     5    1
     6     5     6    1
     7     5     7    1
     8     7     8    1
     9     8     3    1
    10     3     2    1
    11     2     1    1
    12     1    17    1
    13    17    18    1
    14    18    19   ar
    15    19    20   ar
    16    20    21   ar
    17    21    22    1
    18    21    23   ar
    19    23    24   ar
    20    17    25    1
    21    25    26   ar
    22    26    27   ar
    23    27    28   ar
    24    28    29    1
    25    28    30   ar
    26    30    31   ar
    27     8     9    1
    28     9    10    1
    29    10    11    1
    30    10     4    1
    31    24    18   ar
    32    31    25   ar
    33    15    16    1
@<TRIPOS>MOLECULE
*****
 31 33 0 0 0
SMALL
GASTEIGER

@<TRIPOS>ATOM
      1 S         142.6670  139.4352  166.3441 S.3     1  UNL1       -0.1307
      2 C         143.2389  138.9442  165.0472 C.3     1  UNL1        0.0755
      3 C         144.0812  139.8566  164.2058 C.3     1  UNL1        0.0840
      4 N         142.2193  143.4350  162.2111 N.3     1  UNL1       -0.2706
      5 C         141.9906  142.0617  161.6529 C.3     1  UNL1        0.0736
      6 C         141.1412  141.8811  160.4298 C.3     1  UNL1        0.0188
      7 C         142.6112  140.8689  162.3178 C.3     1  UNL1        0.0883
      8 N         143.4606  141.0494  163.5409 N.3     1  UNL1       -0.2696
      9 C         143.6893  142.4227  164.0991 C.3     1  UNL1        0.0883
     10 C         143.0687  143.6155  163.4342 C.3     1  UNL1        0.0736
     11 C         143.2975  144.9889  163.9925 C.3     1  UNL1        0.0188
     12 C         141.5987  144.6278  161.5463 C.3     1  UNL1        0.1017
     13 C         139.2309  144.3454  162.5776 C.3     1  UNL1        0.0332
     14 C         140.3459  145.2320  162.1077 C.3     1  UNL1        0.1265
     15 O         140.2079  146.7229  162.1991 O.3     1  UNL1       -0.3830
     16 H         139.3446  146.9448  162.5819 H       1  UNL1        0.2104
     17 C         141.2428  139.9020  166.4068 C.3     1  UNL1        0.0920
     18 C         140.7668  140.7020  167.5830 C.ar    1  UNL1       -0.0083
     19 C         141.1615  142.1426  167.7193 C.ar    1  UNL1       -0.0008
     20 C         140.6855  142.9426  168.8955 C.ar    1  UNL1        0.0294
     21 C         139.8148  142.3019  169.9354 C.ar    1  UNL1        0.1401
     22 F         139.3388  143.1019  171.1116 F       1  UNL1       -0.2042
     23 C         139.4201  140.8611  169.7991 C.ar    1  UNL1        0.0294
     24 C         139.8961  140.0612  168.6229 C.ar    1  UNL1       -0.0008
     25 C         140.2946  139.5688  165.2933 C.ar    1  UNL1       -0.0083
     26 C         139.8658  138.1483  165.0731 C.ar    1  UNL1       -0.0008
     27 C         138.9176  137.8151  163.9596 C.ar    1  UNL1        0.0294
     28 C         138.3983  138.9023  163.0662 C.ar    1  UNL1        0.1401
     29 F         137.4501  138.5691  161.9527 F       1  UNL1       -0.2042
     30 C         138.8271  140.3228  163.2863 C.ar    1  UNL1        0.0294
     31 C         139.7752  140.6560  164.3998 C.ar    1  UNL1       -0.0008
@<TRIPOS>BOND
     1    13    14    1
     2    14    15    1
     3    14    12    1
     4    12     4    1
     5     4     5    1
     6     5     6    1
     7     5     7    1
     8     7     8    1
     9     8     3    1
    10     3     2    1
    11     2     1    1
    12     1    17    1
    13    17    18    1
    14    18    19   ar
    15    19    20   ar
    16    20    21   ar
    17    21    22    1
    18    21    23   ar
    19    23    24   ar
    20    17    25    1
    21    25    26   ar
    22    26    27   ar
    23    27    28   ar
    24    28    29    1
    25    28    30   ar
    26    30    31   ar
    27     8     9    1
    28     9    10    1
    29    10    11    1
    30    10     4    1
    31    24    18   ar
    32    31    25   ar
    33    15    16    1
@<TRIPOS>MOLECULE
*****
 31 33 0 0 0
SMALL
GASTEIGER

@<TRIPOS>ATOM
      1 S         140.8322  138.3998  165.3476 S.3     1  UNL1       -0.1307
      2 C         139.3426  138.5758  165.3360 C.3     1  UNL1        0.0755
      3 C         138.6988  139.4500  164.3010 C.3     1  UNL1        0.0840
      4 N         140.6335  143.3373  163.1195 N.3     1  UNL1       -0.2706
      5 C         139.5953  143.3147  164.2019 C.3     1  UNL1        0.0736
      6 C         139.2020  144.5880  164.8906 C.3     1  UNL1        0.0188
      7 C         138.9504  142.0189  164.5957 C.3     1  UNL1        0.0883
      8 N         139.3437  140.7457  163.9071 N.3     1  UNL1       -0.2696
      9 C         140.3819  140.7683  162.8247 C.3     1  UNL1        0.0883
     10 C         141.0268  142.0640  162.4309 C.3     1  UNL1        0.0736
     11 C         142.0650  142.0865  161.3485 C.3     1  UNL1        0.0188
     12 C         141.2784  144.6330  162.7257 C.3     1  UNL1        0.1017
     13 C         140.2727  145.1628  160.3896 C.3     1  UNL1        0.0332
     14 C         140.5655  145.5752  161.8017 C.3     1  UNL1        0.1265
     15 O         140.1452  146.9300  162.2899 O.3     1  UNL1       -0.3830
     16 H         139.7006  147.4085  161.5727 H       1  UNL1        0.2104
     17 C         141.6985  139.3876  166.0715 C.3     1  UNL1        0.0920
     18 C         141.4218  139.7160  167.5087 C.ar    1  UNL1       -0.0083
     19 C         142.3728  139.2651  168.5775 C.ar    1  UNL1       -0.0008
     20 C         142.0961  139.5934  170.0147 C.ar    1  UNL1        0.0294
     21 C         140.8685  140.3727  170.3832 C.ar    1  UNL1        0.1401
     22 F         140.5918  140.7010  171.8204 F       1  UNL1       -0.2042
     23 C         139.9175  140.8236  169.3143 C.ar    1  UNL1        0.0294
     24 C         140.1942  140.4952  167.8771 C.ar    1  UNL1       -0.0008
     25 C         142.8414  140.0470  165.3581 C.ar    1  UNL1       -0.0083
     26 C         143.0420  141.5291  165.4724 C.ar    1  UNL1       -0.0008
     27 C         144.1850  142.1885  164.7589 C.ar    1  UNL1        0.0294
     28 C         145.1273  141.3658  163.9313 C.ar    1  UNL1        0.1401
     29 F         146.2702  142.0251  163.2179 F       1  UNL1       -0.2042
     30 C         144.9267  139.8836  163.8170 C.ar    1  UNL1        0.0294
     31 C         143.7838  139.2242  164.5304 C.ar    1  UNL1       -0.0008
@<TRIPOS>BOND
     1    13    14    1
     2    14    15    1
     3    14    12    1
     4    12     4    1
     5     4     5    1
     6     5     6    1
     7     5     7    1
     8     7     8    1
     9     8     3    1
    10     3     2    1
    11     2     1    1
    12     1    17    1
    13    17    18    1
    14    18    19   ar
    15    19    20   ar
    16    20    21   ar
    17    21    22    1
    18    21    23   ar
    19    23    24   ar
    20    17    25    1
    21    25    26   ar
    22    26    27   ar
    23    27    28   ar
    24    28    29    1
    25    28    30   ar
    26    30    31   ar
    27     8     9    1
    28     9    10    1
    29    10    11    1
    30    10     4    1
    31    24    18   ar
    32    31    25   ar
    33    15    16    1
