@<TRIPOS>MOLECULE
*****
 28 30 0 0 0
SMALL
GASTEIGER

@<TRIPOS>ATOM
      1 C         139.9615  140.5742  168.1621 C.ar    1  UNL1        0.0327
      2 C         140.0562  140.4512  166.6701 C.ar    1  UNL1        0.0044
      3 C         139.0853  139.5830  165.9261 C.ar    1  UNL1        0.0193
      4 C         138.0198  138.8377  166.6739 C.ar    1  UNL1        0.1002
      5 N         137.9252  138.9607  168.1658 N.ar    1  UNL1       -0.2296
      6 C         138.8960  139.8290  168.9099 C.ar    1  UNL1        0.1254
      7 N         138.8013  139.9519  170.4019 N.pl3   1  UNL1       -0.3426
      8 H         138.1020  139.4628  170.8927 H       1  UNL1        0.1437
      9 H         139.4385  140.5218  170.8903 H       1  UNL1        0.1437
     10 C         142.8740  143.1789  170.3943 C.ar    1  UNL1        0.2250
     11 C         143.3230  141.8626  169.8325 C.ar    1  UNL1        0.0577
     12 C         142.3522  140.9944  169.0884 C.ar    1  UNL1        0.0064
     13 C         140.9323  141.4424  168.9061 C.ar    1  UNL1        0.0221
     14 C         140.4833  142.7588  169.4679 C.ar    1  UNL1        0.1021
     15 N         141.4542  143.6270  170.2120 N.ar    1  UNL1       -0.2101
     16 C         145.3128  143.9530  170.8449 C.3     1  UNL1        0.2542
     17 O         143.8448  144.0472  171.1383 O.3     1  UNL1       -0.4561
     18 C         139.1800  139.4600  164.4341 C.ar    1  UNL1        0.0015
     19 C         138.9199  138.1392  163.7724 C.ar    1  UNL1        0.0002
     20 C         139.0145  138.0163  162.2804 C.ar    1  UNL1        0.0045
     21 C         139.3694  139.2141  161.4501 C.ar    1  UNL1        0.0536
     22 C         139.6295  140.5349  162.1119 C.ar    1  UNL1        0.0045
     23 C         139.5348  140.6578  163.6038 C.ar    1  UNL1        0.0002
     24 C         139.4641  139.0912  159.9582 C.2     1  UNL1        0.2491
     25 O         138.2893  139.4553  159.0996 O.2     1  UNL1       -0.2699
     26 N         140.7336  138.6041  159.3249 N.am    1  UNL1       -0.2726
     27 C         140.8283  138.4812  157.8329 C.3     1  UNL1        0.1152
     28 C         141.9084  138.2400  160.1836 C.3     1  UNL1        0.1152
@<TRIPOS>BOND
     1    16    17    1
     2    17    10    1
     3    10    11   ar
     4    11    12   ar
     5    12    13   ar
     6    13     1    1
     7     1     2   ar
     8     2     3   ar
     9     3    18    1
    10    18    19   ar
    11    19    20   ar
    12    20    21   ar
    13    21    24    1
    14    24    25    2
    15    24    26   am
    16    26    27    1
    17    26    28    1
    18    21    22   ar
    19    22    23   ar
    20     3     4   ar
    21     4     5   ar
    22     5     6   ar
    23     6     7    1
    24    13    14   ar
    25    14    15   ar
    26    15    10   ar
    27     6     1   ar
    28    23    18   ar
    29     7     8    1
    30     7     9    1
@<TRIPOS>MOLECULE
*****
 28 30 0 0 0
SMALL
GASTEIGER

@<TRIPOS>ATOM
      1 C         140.2230  140.9645  167.8326 C.ar    1  UNL1        0.0327
      2 C         140.1067  141.2244  166.3599 C.ar    1  UNL1        0.0044
      3 C         139.1101  140.4600  165.5398 C.ar    1  UNL1        0.0193
      4 C         138.2299  139.4357  166.1924 C.ar    1  UNL1        0.1002
      5 N         138.3461  139.1758  167.6651 N.ar    1  UNL1       -0.2296
      6 C         139.3427  139.9402  168.4852 C.ar    1  UNL1        0.1254
      7 N         139.4589  139.6803  169.9580 N.pl3   1  UNL1       -0.3426
      8 H         138.8812  139.0080  170.3863 H       1  UNL1        0.1437
      9 H         140.1130  140.1820  170.4962 H       1  UNL1        0.1437
     10 C         143.2126  143.2577  170.2929 C.ar    1  UNL1        0.2250
     11 C         141.7840  143.7112  170.2344 C.ar    1  UNL1        0.0577
     12 C         140.7875  142.9468  169.4143 C.ar    1  UNL1        0.0064
     13 C         141.2195  141.7289  168.6527 C.ar    1  UNL1        0.0221
     14 C         142.6481  141.2754  168.7112 C.ar    1  UNL1        0.1021
     15 N         143.6446  142.0399  169.5313 N.ar    1  UNL1       -0.2101
     16 C         145.6730  143.9189  170.8023 C.3     1  UNL1        0.2542
     17 O         144.2092  144.0222  171.1130 O.3     1  UNL1       -0.4561
     18 C         138.9939  140.7199  164.0670 C.ar    1  UNL1        0.0015
     19 C         140.1366  141.3451  163.3233 C.ar    1  UNL1        0.0002
     20 C         140.0204  141.6050  161.8505 C.ar    1  UNL1        0.0045
     21 C         138.7614  141.2397  161.1215 C.ar    1  UNL1        0.0536
     22 C         137.6186  140.6144  161.8653 C.ar    1  UNL1        0.0045
     23 C         137.7349  140.3545  163.3380 C.ar    1  UNL1        0.0002
     24 C         138.6451  141.4995  159.6488 C.2     1  UNL1        0.2491
     25 O         138.2179  142.8507  159.1571 O.2     1  UNL1       -0.2699
     26 N         138.9560  140.4082  158.6678 N.am    1  UNL1       -0.2726
     27 C         138.8397  140.6681  157.1951 C.3     1  UNL1        0.1152
     28 C         139.3832  139.0571  159.1596 C.3     1  UNL1        0.1152
@<TRIPOS>BOND
     1    16    17    1
     2    17    10    1
     3    10    11   ar
     4    11    12   ar
     5    12    13   ar
     6    13     1    1
     7     1     2   ar
     8     2     3   ar
     9     3    18    1
    10    18    19   ar
    11    19    20   ar
    12    20    21   ar
    13    21    24    1
    14    24    25    2
    15    24    26   am
    16    26    27    1
    17    26    28    1
    18    21    22   ar
    19    22    23   ar
    20     3     4   ar
    21     4     5   ar
    22     5     6   ar
    23     6     7    1
    24    13    14   ar
    25    14    15   ar
    26    15    10   ar
    27     6     1   ar
    28    23    18   ar
    29     7     8    1
    30     7     9    1
@<TRIPOS>MOLECULE
*****
 28 30 0 0 0
SMALL
GASTEIGER

@<TRIPOS>ATOM
      1 C         140.2426  142.5124  161.0826 C.ar    1  UNL1        0.0327
      2 C         140.4863  142.2632  162.5415 C.ar    1  UNL1        0.0044
      3 C         139.3411  142.2978  163.5098 C.ar    1  UNL1        0.0193
      4 C         137.9524  142.5815  163.0191 C.ar    1  UNL1        0.1002
      5 N         137.7088  142.8307  161.5602 N.ar    1  UNL1       -0.2296
      6 C         138.8539  142.7961  160.5919 C.ar    1  UNL1        0.1254
      7 N         138.6102  143.0453  159.1329 N.pl3   1  UNL1       -0.3426
      8 H         137.6986  143.2316  158.8109 H       1  UNL1        0.1437
      9 H         139.3617  143.0227  158.4974 H       1  UNL1        0.1437
     10 C         143.6779  142.4087  158.1778 C.ar    1  UNL1        0.2250
     11 C         142.9389  141.1466  158.5108 C.ar    1  UNL1        0.0577
     12 C         141.7938  141.1811  159.4790 C.ar    1  UNL1        0.0064
     13 C         141.3877  142.4778  160.1143 C.ar    1  UNL1        0.0221
     14 C         142.1267  143.7399  159.7814 C.ar    1  UNL1        0.1021
     15 N         143.2719  143.7053  158.8131 N.ar    1  UNL1       -0.2101
     16 C         145.3651  141.0582  156.7357 C.3     1  UNL1        0.2542
     17 O         144.8231  142.3741  157.2096 O.3     1  UNL1       -0.4561
     18 C         139.5849  142.0486  164.9688 C.ar    1  UNL1        0.0015
     19 C         139.3327  140.6889  165.5497 C.ar    1  UNL1        0.0002
     20 C         139.5764  140.4397  167.0087 C.ar    1  UNL1        0.0045
     21 C         140.0723  141.5502  167.8867 C.ar    1  UNL1        0.0536
     22 C         140.3244  142.9100  167.3056 C.ar    1  UNL1        0.0045
     23 C         140.0807  143.1591  165.8467 C.ar    1  UNL1        0.0002
     24 C         140.3160  141.3011  169.3456 C.2     1  UNL1        0.2491
     25 O         139.1861  141.4174  170.3253 O.2     1  UNL1       -0.2699
     26 N         141.6896  140.9356  169.8248 N.am    1  UNL1       -0.2726
     27 C         141.9333  140.6865  171.2838 C.3     1  UNL1        0.1152
     28 C         142.8194  140.8194  168.8451 C.3     1  UNL1        0.1152
@<TRIPOS>BOND
     1    16    17    1
     2    17    10    1
     3    10    11   ar
     4    11    12   ar
     5    12    13   ar
     6    13     1    1
     7     1     2   ar
     8     2     3   ar
     9     3    18    1
    10    18    19   ar
    11    19    20   ar
    12    20    21   ar
    13    21    24    1
    14    24    25    2
    15    24    26   am
    16    26    27    1
    17    26    28    1
    18    21    22   ar
    19    22    23   ar
    20     3     4   ar
    21     4     5   ar
    22     5     6   ar
    23     6     7    1
    24    13    14   ar
    25    14    15   ar
    26    15    10   ar
    27     6     1   ar
    28    23    18   ar
    29     7     8    1
    30     7     9    1
@<TRIPOS>MOLECULE
*****
 28 30 0 0 0
SMALL
GASTEIGER

@<TRIPOS>ATOM
      1 C         142.5567  141.9869  161.1644 C.ar    1  UNL1        0.0327
      2 C         142.3239  141.8224  162.6371 C.ar    1  UNL1        0.0044
      3 C         142.3983  143.0136  163.5458 C.ar    1  UNL1        0.0193
      4 C         142.7055  144.3691  162.9818 C.ar    1  UNL1        0.1002
      5 N         142.9384  144.5335  161.5092 N.ar    1  UNL1       -0.2296
      6 C         142.8639  143.3424  160.6005 C.ar    1  UNL1        0.1254
      7 N         143.0968  143.5069  159.1278 N.pl3   1  UNL1       -0.3426
      8 H         143.2984  144.3966  158.7576 H       1  UNL1        0.1437
      9 H         143.0480  142.7251  158.5314 H       1  UNL1        0.1437
     10 C         142.3335  138.4135  158.4384 C.ar    1  UNL1        0.2250
     11 C         141.0910  139.1892  158.7614 C.ar    1  UNL1        0.0577
     12 C         141.1654  140.3803  159.6701 C.ar    1  UNL1        0.0064
     13 C         142.4823  140.7958  160.2557 C.ar    1  UNL1        0.0221
     14 C         143.7249  140.0201  159.9327 C.ar    1  UNL1        0.1021
     15 N         143.6504  138.8290  159.0240 N.ar    1  UNL1       -0.2101
     16 C         141.1714  137.1308  156.5008 C.3     1  UNL1        0.2542
     17 O         142.2591  137.2224  157.5297 O.3     1  UNL1       -0.4561
     18 C         142.1655  142.8491  165.0185 C.ar    1  UNL1        0.0015
     19 C         140.7842  143.0066  165.5816 C.ar    1  UNL1        0.0002
     20 C         140.5513  142.8421  167.0543 C.ar    1  UNL1        0.0045
     21 C         141.6998  142.5201  167.9638 C.ar    1  UNL1        0.0536
     22 C         143.0812  142.3626  167.4006 C.ar    1  UNL1        0.0045
     23 C         143.3140  142.5271  165.9280 C.ar    1  UNL1        0.0002
     24 C         141.4671  142.3556  169.4365 C.2     1  UNL1        0.2491
     25 O         141.6140  143.5323  170.3551 O.2     1  UNL1       -0.2699
     26 N         141.0874  141.0144  169.9905 N.am    1  UNL1       -0.2726
     27 C         140.8546  140.8499  171.4632 C.3     1  UNL1        0.1152
     28 C         140.9405  139.8377  169.0719 C.3     1  UNL1        0.1152
@<TRIPOS>BOND
     1    16    17    1
     2    17    10    1
     3    10    11   ar
     4    11    12   ar
     5    12    13   ar
     6    13     1    1
     7     1     2   ar
     8     2     3   ar
     9     3    18    1
    10    18    19   ar
    11    19    20   ar
    12    20    21   ar
    13    21    24    1
    14    24    25    2
    15    24    26   am
    16    26    27    1
    17    26    28    1
    18    21    22   ar
    19    22    23   ar
    20     3     4   ar
    21     4     5   ar
    22     5     6   ar
    23     6     7    1
    24    13    14   ar
    25    14    15   ar
    26    15    10   ar
    27     6     1   ar
    28    23    18   ar
    29     7     8    1
    30     7     9    1
@<TRIPOS>MOLECULE
*****
 28 30 0 0 0
SMALL
GASTEIGER

@<TRIPOS>ATOM
      1 C         139.3724  141.3613  161.0413 C.ar    1  UNL1        0.0327
      2 C         139.6757  141.1555  162.4958 C.ar    1  UNL1        0.0044
      3 C         139.1543  142.1246  163.5151 C.ar    1  UNL1        0.0193
      4 C         138.3295  143.2994  163.0799 C.ar    1  UNL1        0.1002
      5 N         138.0261  143.5052  161.6255 N.ar    1  UNL1       -0.2296
      6 C         138.5476  142.5362  160.6061 C.ar    1  UNL1        0.1254
      7 N         138.2442  142.7420  159.1516 N.pl3   1  UNL1       -0.3426
      8 H         137.7028  143.5131  158.8660 H       1  UNL1        0.1437
      9 H         138.5864  142.1060  158.4825 H       1  UNL1        0.1437
     10 C         140.9367  138.4542  157.9833 C.ar    1  UNL1        0.2250
     11 C         141.8215  139.5512  158.4966 C.ar    1  UNL1        0.0577
     12 C         141.3001  140.5203  159.5160 C.ar    1  UNL1        0.0064
     13 C         139.8938  140.3923  160.0220 C.ar    1  UNL1        0.0221
     14 C         139.0090  139.2952  159.5086 C.ar    1  UNL1        0.1021
     15 N         139.5305  138.3261  158.4893 N.ar    1  UNL1       -0.2101
     16 C         142.7036  136.6980  157.2457 C.3     1  UNL1        0.2542
     17 O         141.4582  137.4851  156.9640 O.3     1  UNL1       -0.4561
     18 C         139.4577  141.9188  164.9697 C.ar    1  UNL1        0.0015
     19 C         140.0285  143.0423  165.7830 C.ar    1  UNL1        0.0002
     20 C         140.3319  142.8365  167.2376 C.ar    1  UNL1        0.0045
     21 C         140.0644  141.5070  167.8787 C.ar    1  UNL1        0.0536
     22 C         139.4935  140.3834  167.0652 C.ar    1  UNL1        0.0045
     23 C         139.1902  140.5893  165.6108 C.ar    1  UNL1        0.0002
     24 C         140.3678  141.3012  169.3332 C.2     1  UNL1        0.2491
     25 O         139.2885  141.4873  170.3581 O.2     1  UNL1       -0.2699
     26 N         141.7504  140.9092  169.7627 N.am    1  UNL1       -0.2726
     27 C         142.0538  140.7033  171.2173 C.3     1  UNL1        0.1152
     28 C         142.8297  140.7230  168.7378 C.3     1  UNL1        0.1152
@<TRIPOS>BOND
     1    16    17    1
     2    17    10    1
     3    10    11   ar
     4    11    12   ar
     5    12    13   ar
     6    13     1    1
     7     1     2   ar
     8     2     3   ar
     9     3    18    1
    10    18    19   ar
    11    19    20   ar
    12    20    21   ar
    13    21    24    1
    14    24    25    2
    15    24    26   am
    16    26    27    1
    17    26    28    1
    18    21    22   ar
    19    22    23   ar
    20     3     4   ar
    21     4     5   ar
    22     5     6   ar
    23     6     7    1
    24    13    14   ar
    25    14    15   ar
    26    15    10   ar
    27     6     1   ar
    28    23    18   ar
    29     7     8    1
    30     7     9    1
@<TRIPOS>MOLECULE
*****
 28 30 0 0 0
SMALL
GASTEIGER

@<TRIPOS>ATOM
      1 C         142.9751  140.8028  160.7200 C.ar    1  UNL1        0.0327
      2 C         142.7547  140.9570  162.1956 C.ar    1  UNL1        0.0044
      3 C         143.2348  139.8955  163.1406 C.ar    1  UNL1        0.0193
      4 C         143.9352  138.6799  162.6099 C.ar    1  UNL1        0.1002
      5 N         144.1555  138.5258  161.1342 N.ar    1  UNL1       -0.2296
      6 C         143.6755  139.5872  160.1893 C.ar    1  UNL1        0.1254
      7 N         143.8959  139.4330  158.7135 N.pl3   1  UNL1       -0.3426
      8 H         144.3556  138.6351  158.3652 H       1  UNL1        0.1437
      9 H         143.5808  140.1296  158.0933 H       1  UNL1        0.1437
     10 C         141.5349  143.9870  157.8851 C.ar    1  UNL1        0.2250
     11 C         140.6637  142.8047  158.1901 C.ar    1  UNL1        0.0577
     12 C         141.1438  141.7433  159.1351 C.ar    1  UNL1        0.0064
     13 C         142.4950  141.8642  159.7750 C.ar    1  UNL1        0.0221
     14 C         143.3661  143.0465  159.4700 C.ar    1  UNL1        0.1021
     15 N         142.8861  144.1080  158.5250 N.ar    1  UNL1       -0.2101
     16 C         140.1924  146.1673  157.4445 C.3     1  UNL1        0.2542
     17 O         141.0548  145.0484  156.9402 O.3     1  UNL1       -0.4561
     18 C         143.0144  140.0498  164.6163 C.ar    1  UNL1        0.0015
     19 C         142.7184  141.4024  165.1931 C.ar    1  UNL1        0.0002
     20 C         142.4980  141.5566  166.6688 C.ar    1  UNL1        0.0045
     21 C         142.5736  140.3582  167.5677 C.ar    1  UNL1        0.0536
     22 C         142.8696  139.0055  166.9908 C.ar    1  UNL1        0.0045
     23 C         143.0899  138.8513  165.5152 C.ar    1  UNL1        0.0002
     24 C         142.3532  140.5123  169.0434 C.2     1  UNL1        0.2491
     25 O         143.5226  140.7272  169.9579 O.2     1  UNL1       -0.2699
     26 N         140.9635  140.4516  169.6045 N.am    1  UNL1       -0.2726
     27 C         140.7430  140.6058  171.0802 C.3     1  UNL1        0.1152
     28 C         139.7941  140.2368  168.6899 C.3     1  UNL1        0.1152
@<TRIPOS>BOND
     1    16    17    1
     2    17    10    1
     3    10    11   ar
     4    11    12   ar
     5    12    13   ar
     6    13     1    1
     7     1     2   ar
     8     2     3   ar
     9     3    18    1
    10    18    19   ar
    11    19    20   ar
    12    20    21   ar
    13    21    24    1
    14    24    25    2
    15    24    26   am
    16    26    27    1
    17    26    28    1
    18    21    22   ar
    19    22    23   ar
    20     3     4   ar
    21     4     5   ar
    22     5     6   ar
    23     6     7    1
    24    13    14   ar
    25    14    15   ar
    26    15    10   ar
    27     6     1   ar
    28    23    18   ar
    29     7     8    1
    30     7     9    1
@<TRIPOS>MOLECULE
*****
 28 30 0 0 0
SMALL
GASTEIGER

@<TRIPOS>ATOM
      1 C         140.2529  143.1979  164.4194 C.ar    1  UNL1        0.0327
      2 C         141.2130  142.8114  163.3337 C.ar    1  UNL1        0.0044
      3 C         141.3654  143.6825  162.1222 C.ar    1  UNL1        0.0193
      4 C         140.5578  144.9403  161.9964 C.ar    1  UNL1        0.1002
      5 N         139.5977  145.3268  163.0821 N.ar    1  UNL1       -0.2296
      6 C         139.4453  144.4556  164.2936 C.ar    1  UNL1        0.1254
      7 N         138.4851  144.8422  165.3794 N.pl3   1  UNL1       -0.3426
      8 H         137.9550  145.6677  165.2968 H       1  UNL1        0.1437
      9 H         138.3850  144.2704  166.1745 H       1  UNL1        0.1437
     10 C         139.7955  140.5843  168.0540 C.ar    1  UNL1        0.2250
     11 C         140.6201  141.8351  168.1286 C.ar    1  UNL1        0.0577
     12 C         140.7726  142.7062  166.9171 C.ar    1  UNL1        0.0064
     13 C         140.1004  142.3267  165.6310 C.ar    1  UNL1        0.0221
     14 C         139.2758  141.0760  165.5564 C.ar    1  UNL1        0.1021
     15 N         139.1233  140.2048  166.7679 N.ar    1  UNL1       -0.2101
     16 C         140.2287  140.1439  170.5776 C.3     1  UNL1        0.2542
     17 O         139.6430  139.7131  169.2655 O.3     1  UNL1       -0.4561
     18 C         142.3256  143.2960  161.0365 C.ar    1  UNL1        0.0015
     19 C         142.1559  143.8499  159.6529 C.ar    1  UNL1        0.0002
     20 C         143.1160  143.4634  158.5672 C.ar    1  UNL1        0.0045
     21 C         144.2458  142.5228  158.8651 C.ar    1  UNL1        0.0536
     22 C         144.4155  141.9688  160.2487 C.ar    1  UNL1        0.0045
     23 C         143.4554  142.3554  161.3344 C.ar    1  UNL1        0.0002
     24 C         145.2060  142.1362  157.7795 C.2     1  UNL1        0.2491
     25 O         146.5120  142.8607  157.6403 O.2     1  UNL1       -0.2699
     26 N         144.8601  141.0251  156.8330 N.am    1  UNL1       -0.2726
     27 C         145.8202  140.6384  155.7473 C.3     1  UNL1        0.1152
     28 C         143.5540  140.3006  156.9723 C.3     1  UNL1        0.1152
@<TRIPOS>BOND
     1    16    17    1
     2    17    10    1
     3    10    11   ar
     4    11    12   ar
     5    12    13   ar
     6    13     1    1
     7     1     2   ar
     8     2     3   ar
     9     3    18    1
    10    18    19   ar
    11    19    20   ar
    12    20    21   ar
    13    21    24    1
    14    24    25    2
    15    24    26   am
    16    26    27    1
    17    26    28    1
    18    21    22   ar
    19    22    23   ar
    20     3     4   ar
    21     4     5   ar
    22     5     6   ar
    23     6     7    1
    24    13    14   ar
    25    14    15   ar
    26    15    10   ar
    27     6     1   ar
    28    23    18   ar
    29     7     8    1
    30     7     9    1
@<TRIPOS>MOLECULE
*****
 28 30 0 0 0
SMALL
GASTEIGER

@<TRIPOS>ATOM
      1 C         141.4606  142.7220  161.1410 C.ar    1  UNL1        0.0327
      2 C         141.2660  142.5159  162.6139 C.ar    1  UNL1        0.0044
      3 C         142.2327  143.1186  163.5898 C.ar    1  UNL1        0.0193
      4 C         143.3940  143.9274  163.0927 C.ar    1  UNL1        0.1002
      5 N         143.5887  144.1335  161.6198 N.ar    1  UNL1       -0.2296
      6 C         142.6220  143.5308  160.6439 C.ar    1  UNL1        0.1254
      7 N         142.8167  143.7369  159.1709 N.pl3   1  UNL1       -0.3426
      8 H         143.5790  144.2677  158.8447 H       1  UNL1        0.1437
      9 H         142.1823  143.3414  158.5304 H       1  UNL1        0.1437
     10 C         138.5606  140.9139  158.2134 C.ar    1  UNL1        0.2250
     11 C         138.3391  142.3062  158.7258 C.ar    1  UNL1        0.0577
     12 C         139.3058  142.9089  159.7017 C.ar    1  UNL1        0.0064
     13 C         140.4940  142.1193  160.1651 C.ar    1  UNL1        0.0221
     14 C         140.7155  140.7271  159.6527 C.ar    1  UNL1        0.1021
     15 N         139.7488  140.1244  158.6768 N.ar    1  UNL1       -0.2101
     16 C         136.5420  141.1679  156.5976 C.3     1  UNL1        0.2542
     17 O         137.5940  140.3113  157.2375 O.3     1  UNL1       -0.4561
     18 C         142.0379  142.9125  165.0628 C.ar    1  UNL1        0.0015
     19 C         143.2016  142.5247  165.9261 C.ar    1  UNL1        0.0002
     20 C         143.0069  142.3185  167.3991 C.ar    1  UNL1        0.0045
     21 C         141.6485  142.5003  168.0087 C.ar    1  UNL1        0.0536
     22 C         140.4847  142.8881  167.1453 C.ar    1  UNL1        0.0045
     23 C         140.6795  143.0942  165.6724 C.ar    1  UNL1        0.0002
     24 C         141.4537  142.2941  169.4816 C.2     1  UNL1        0.2491
     25 O         141.6797  143.4305  170.4343 O.2     1  UNL1       -0.2699
     26 N         141.0330  140.9517  170.0019 N.am    1  UNL1       -0.2726
     27 C         140.8382  140.7455  171.4749 C.3     1  UNL1        0.1152
     28 C         140.8070  139.8153  169.0492 C.3     1  UNL1        0.1152
@<TRIPOS>BOND
     1    16    17    1
     2    17    10    1
     3    10    11   ar
     4    11    12   ar
     5    12    13   ar
     6    13     1    1
     7     1     2   ar
     8     2     3   ar
     9     3    18    1
    10    18    19   ar
    11    19    20   ar
    12    20    21   ar
    13    21    24    1
    14    24    25    2
    15    24    26   am
    16    26    27    1
    17    26    28    1
    18    21    22   ar
    19    22    23   ar
    20     3     4   ar
    21     4     5   ar
    22     5     6   ar
    23     6     7    1
    24    13    14   ar
    25    14    15   ar
    26    15    10   ar
    27     6     1   ar
    28    23    18   ar
    29     7     8    1
    30     7     9    1
@<TRIPOS>MOLECULE
*****
 28 30 0 0 0
SMALL
GASTEIGER

@<TRIPOS>ATOM
      1 C         140.1807  140.0484  161.0403 C.ar    1  UNL1        0.0327
      2 C         140.4058  140.2582  162.5083 C.ar    1  UNL1        0.0044
      3 C         139.2412  140.2546  163.4537 C.ar    1  UNL1        0.0193
      4 C         137.8516  140.0413  162.9310 C.ar    1  UNL1        0.1002
      5 N         137.6265  139.8315  161.4630 N.ar    1  UNL1       -0.2296
      6 C         138.7910  139.8351  160.5176 C.ar    1  UNL1        0.1254
      7 N         138.5659  139.6253  159.0494 N.pl3   1  UNL1       -0.3426
      8 H         137.6537  139.4852  158.7064 H       1  UNL1        0.1437
      9 H         139.3302  139.6276  158.4289 H       1  UNL1        0.1437
     10 C         143.6744  140.0592  158.2041 C.ar    1  UNL1        0.2250
     11 C         142.8606  141.3044  158.3963 C.ar    1  UNL1        0.0577
     12 C         141.6960  141.3009  159.3417 C.ar    1  UNL1        0.0064
     13 C         141.3453  140.0520  160.0949 C.ar    1  UNL1        0.0221
     14 C         142.1591  138.8068  159.9026 C.ar    1  UNL1        0.1021
     15 N         143.3236  138.8103  158.9572 N.ar    1  UNL1       -0.2101
     16 C         145.4582  141.3621  156.8365 C.3     1  UNL1        0.2542
     17 O         144.8390  140.0628  157.2587 O.3     1  UNL1       -0.4561
     18 C         139.4664  140.4645  164.9219 C.ar    1  UNL1        0.0015
     19 C         140.0947  141.7360  165.4101 C.ar    1  UNL1        0.0002
     20 C         140.3199  141.9458  166.8782 C.ar    1  UNL1        0.0045
     21 C         139.9167  140.8840  167.8581 C.ar    1  UNL1        0.0536
     22 C         139.2883  139.6124  167.3698 C.ar    1  UNL1        0.0045
     23 C         139.0632  139.4027  165.9017 C.ar    1  UNL1        0.0002
     24 C         140.1418  141.0938  169.3261 C.2     1  UNL1        0.2491
     25 O         139.0037  141.5179  170.2064 O.2     1  UNL1       -0.2699
     26 N         141.5050  140.8793  169.9140 N.am    1  UNL1       -0.2726
     27 C         141.7302  141.0891  171.3821 C.3     1  UNL1        0.1152
     28 C         142.6431  140.4552  169.0337 C.3     1  UNL1        0.1152
@<TRIPOS>BOND
     1    16    17    1
     2    17    10    1
     3    10    11   ar
     4    11    12   ar
     5    12    13   ar
     6    13     1    1
     7     1     2   ar
     8     2     3   ar
     9     3    18    1
    10    18    19   ar
    11    19    20   ar
    12    20    21   ar
    13    21    24    1
    14    24    25    2
    15    24    26   am
    16    26    27    1
    17    26    28    1
    18    21    22   ar
    19    22    23   ar
    20     3     4   ar
    21     4     5   ar
    22     5     6   ar
    23     6     7    1
    24    13    14   ar
    25    14    15   ar
    26    15    10   ar
    27     6     1   ar
    28    23    18   ar
    29     7     8    1
    30     7     9    1
