@<TRIPOS>MOLECULE
*****
 35 39 0 0 0
SMALL
GASTEIGER

@<TRIPOS>ATOM
      1 C         140.9720  139.4059  159.9929 C.ar    1  UNL1        0.1233
      2 C         141.1662  138.9762  161.4169 C.ar    1  UNL1        0.1180
      3 N         140.9363  140.1693  162.2965 N.ar    1  UNL1       -0.2233
      4 N         140.6001  141.3363  161.4162 N.ar    1  UNL1       -0.0634
      5 N         140.6222  140.8645  159.9925 N.ar    1  UNL1       -0.1287
      6 C         141.0268  140.1915  163.7936 C.3     1  UNL1        0.1834
      7 C         142.3739  140.5315  164.3593 C.3     1  UNL1        0.0386
      8 C         142.7850  140.6347  165.7981 C.3     1  UNL1        0.0301
      9 C         141.9507  140.4234  167.0267 C.ar    1  UNL1       -0.0084
     10 C         142.7548  140.6260  168.2766 C.ar    1  UNL1       -0.0030
     11 C         142.1074  140.4618  169.6197 C.ar    1  UNL1       -0.0002
     12 C         140.6559  140.0951  169.7129 C.ar    1  UNL1        0.0013
     13 C         139.8518  139.8925  168.4629 C.ar    1  UNL1        0.0146
     14 C         140.4992  140.0567  167.1199 C.ar    1  UNL1        0.0501
     15 N         139.5236  139.8107  166.0074 N.am    1  UNL1       -0.2516
     16 C         139.7583  139.8707  164.5271 C.2     1  UNL1        0.2519
     17 O         138.5671  139.5701  163.6665 O.2     1  UNL1       -0.2724
     18 C         138.1286  139.4581  166.4314 C.3     1  UNL1        0.1703
     19 C         137.7445  138.0212  166.6265 C.3     1  UNL1        0.3384
     20 F         136.7357  137.6500  167.6727 F       1  UNL1       -0.1965
     21 F         138.3694  136.9558  165.7755 F       1  UNL1       -0.1965
     22 C         140.0217  137.2963  156.7686 C.ar    1  UNL1        0.1547
     23 C         139.8891  138.1716  157.9795 C.ar    1  UNL1        0.0400
     24 C         141.1045  138.5305  158.7820 C.ar    1  UNL1        0.0241
     25 C         142.4523  138.0142  158.3737 C.ar    1  UNL1        0.0033
     26 C         142.5847  137.1388  157.1628 C.ar    1  UNL1        0.0207
     27 C         141.3695  136.7799  156.3603 C.ar    1  UNL1        0.0994
     28 N         141.5020  135.9046  155.1494 N.ar    1  UNL1       -0.2839
     29 C         141.8048  136.3680  153.7553 C.ar    1  UNL1        0.1826
     30 N         141.8449  135.1619  152.8644 N.ar    1  UNL1       -0.2280
     31 C         141.5668  133.9531  153.7078 C.ar    1  UNL1        0.0786
     32 C         141.5106  132.5344  153.2239 C.3     1  UNL1        0.0538
     33 C         141.3549  134.4121  155.1200 C.ar    1  UNL1        0.0963
     34 C         138.4215  137.7660  154.7764 C.3     1  UNL1        0.2525
     35 O         138.8063  136.9374  155.9661 O.3     1  UNL1       -0.4700
@<TRIPOS>BOND
     1    34    35    1
     2    35    22    1
     3    22    23   ar
     4    23    24   ar
     5    24     1    1
     6     1     2   ar
     7     2     3   ar
     8     3     6    1
     9     6     7    1
    10     7     8    1
    11     8     9    1
    12     9    10   ar
    13    10    11   ar
    14    11    12   ar
    15    12    13   ar
    16    13    14   ar
    17    14    15    1
    18    15    18    1
    19    18    19    1
    20    19    20    1
    21    19    21    1
    22    15    16   am
    23    16    17    2
    24     3     4   ar
    25     4     5   ar
    26    24    25   ar
    27    25    26   ar
    28    26    27   ar
    29    27    28    1
    30    28    29   ar
    31    29    30   ar
    32    30    31   ar
    33    31    32    1
    34    31    33   ar
    35    27    22   ar
    36    33    28   ar
    37     5     1   ar
    38    16     6    1
    39    14     9   ar
@<TRIPOS>MOLECULE
*****
 35 39 0 0 0
SMALL
GASTEIGER

@<TRIPOS>ATOM
      1 C         143.1889  138.4481  159.9759 C.ar    1  UNL1        0.1233
      2 C         142.6976  137.1849  159.3332 C.ar    1  UNL1        0.1180
      3 N         142.9568  137.2836  157.8591 N.ar    1  UNL1       -0.2233
      4 N         143.6082  138.6078  157.5907 N.ar    1  UNL1       -0.0634
      5 N         143.7516  139.3275  158.8989 N.ar    1  UNL1       -0.1287
      6 C         142.6231  136.2411  156.8335 C.3     1  UNL1        0.1834
      7 C         141.9427  136.7419  155.5940 C.3     1  UNL1        0.0386
      8 C         141.4852  135.9609  154.3979 C.3     1  UNL1        0.0301
      9 C         141.5950  134.4863  154.1457 C.ar    1  UNL1       -0.0084
     10 C         141.0088  134.1125  152.8166 C.ar    1  UNL1       -0.0030
     11 C         141.0171  132.6808  152.3693 C.ar    1  UNL1       -0.0002
     12 C         141.6116  131.6229  153.2511 C.ar    1  UNL1        0.0013
     13 C         142.1978  131.9968  154.5802 C.ar    1  UNL1        0.0146
     14 C         142.1895  133.4285  155.0275 C.ar    1  UNL1        0.0501
     15 N         142.8210  133.5840  156.3792 N.am    1  UNL1       -0.2516
     16 C         143.0140  134.8357  157.1830 C.2     1  UNL1        0.2519
     17 O         143.6868  134.6586  158.5118 O.2     1  UNL1       -0.2724
     18 C         143.3263  132.3207  157.0107 C.3     1  UNL1        0.1703
     19 C         144.7790  131.9606  156.9095 C.3     1  UNL1        0.3384
     20 F         145.2804  131.1929  155.7224 F       1  UNL1       -0.1965
     21 F         145.7300  132.3684  157.9954 F       1  UNL1       -0.1965
     22 C         144.1992  139.8380  163.5532 C.ar    1  UNL1        0.1547
     23 C         144.2602  139.5116  162.0904 C.ar    1  UNL1        0.0400
     24 C         143.1280  138.7745  161.4387 C.ar    1  UNL1        0.0241
     25 C         141.9349  138.3637  162.2497 C.ar    1  UNL1        0.0033
     26 C         141.8740  138.6902  163.7125 C.ar    1  UNL1        0.0207
     27 C         143.0062  139.4273  164.3642 C.ar    1  UNL1        0.0994
     28 N         142.9452  139.7537  165.8271 N.ar    1  UNL1       -0.2839
     29 C         143.0605  138.7717  166.9551 C.ar    1  UNL1        0.1826
     30 N         142.9448  139.5305  168.2438 N.ar    1  UNL1       -0.2280
     31 C         142.7581  140.9814  167.9123 C.ar    1  UNL1        0.0786
     32 C         142.5990  142.0983  168.9008 C.3     1  UNL1        0.0538
     33 C         142.7583  141.1194  166.4186 C.ar    1  UNL1        0.0963
     34 C         145.8612  141.8347  163.5862 C.3     1  UNL1        0.2525
     35 O         145.3315  140.5751  164.2049 O.3     1  UNL1       -0.4700
@<TRIPOS>BOND
     1    34    35    1
     2    35    22    1
     3    22    23   ar
     4    23    24   ar
     5    24     1    1
     6     1     2   ar
     7     2     3   ar
     8     3     6    1
     9     6     7    1
    10     7     8    1
    11     8     9    1
    12     9    10   ar
    13    10    11   ar
    14    11    12   ar
    15    12    13   ar
    16    13    14   ar
    17    14    15    1
    18    15    18    1
    19    18    19    1
    20    19    20    1
    21    19    21    1
    22    15    16   am
    23    16    17    2
    24     3     4   ar
    25     4     5   ar
    26    24    25   ar
    27    25    26   ar
    28    26    27   ar
    29    27    28    1
    30    28    29   ar
    31    29    30   ar
    32    30    31   ar
    33    31    32    1
    34    31    33   ar
    35    27    22   ar
    36    33    28   ar
    37     5     1   ar
    38    16     6    1
    39    14     9   ar
@<TRIPOS>MOLECULE
*****
 35 39 0 0 0
SMALL
GASTEIGER

@<TRIPOS>ATOM
      1 C         143.1870  139.6840  161.3504 C.ar    1  UNL1        0.1233
      2 C         142.7946  140.3856  162.6168 C.ar    1  UNL1        0.1180
      3 N         142.3822  139.3445  163.6148 N.ar    1  UNL1       -0.2233
      4 N         142.5196  137.9995  162.9651 N.ar    1  UNL1       -0.0634
      5 N         143.0170  138.2093  161.5656 N.ar    1  UNL1       -0.1287
      6 C         141.9144  139.6030  165.0164 C.3     1  UNL1        0.1834
      7 C         142.9755  140.0241  165.9894 C.3     1  UNL1        0.0386
      8 C         142.8316  140.3524  167.4459 C.3     1  UNL1        0.0301
      9 C         141.5911  140.3408  168.2892 C.ar    1  UNL1       -0.0084
     10 C         141.8876  140.7361  169.7055 C.ar    1  UNL1       -0.0030
     11 C         140.7810  140.7885  170.7167 C.ar    1  UNL1       -0.0002
     12 C         139.3780  140.4456  170.3117 C.ar    1  UNL1        0.0013
     13 C         139.0816  140.0503  168.8954 C.ar    1  UNL1        0.0146
     14 C         140.1881  139.9979  167.8842 C.ar    1  UNL1        0.0501
     15 N         139.6792  139.5820  166.5358 N.am    1  UNL1       -0.2516
     16 C         140.4473  139.4063  165.2595 C.2     1  UNL1        0.2519
     17 O         139.6421  138.9770  164.0691 O.2     1  UNL1       -0.2724
     18 C         138.2072  139.3053  166.4529 C.3     1  UNL1        0.1703
     19 C         137.6902  137.9177  166.6925 C.3     1  UNL1        0.3384
     20 F         138.2387  136.7662  165.9031 F       1  UNL1       -0.1965
     21 F         136.6247  137.6818  167.7216 F       1  UNL1       -0.1965
     22 C         144.2102  140.2149  157.5529 C.ar    1  UNL1        0.1547
     23 C         143.7319  139.5572  158.8132 C.ar    1  UNL1        0.0400
     24 C         143.6653  140.3417  160.0900 C.ar    1  UNL1        0.0241
     25 C         144.0771  141.7840  160.1063 C.ar    1  UNL1        0.0033
     26 C         144.5554  142.4417  158.8459 C.ar    1  UNL1        0.0207
     27 C         144.6220  141.6572  157.5693 C.ar    1  UNL1        0.0994
     28 N         145.1004  142.3149  156.3088 N.ar    1  UNL1       -0.2839
     29 C         144.2321  142.9165  155.2438 C.ar    1  UNL1        0.1826
     30 N         145.1261  143.4599  154.1690 N.ar    1  UNL1       -0.2280
     31 C         146.5469  143.1943  154.5696 C.ar    1  UNL1        0.0786
     32 C         147.7691  143.5702  153.7855 C.3     1  UNL1        0.0538
     33 C         146.5311  142.4866  155.8921 C.ar    1  UNL1        0.0963
     34 C         143.0133  139.0513  155.5620 C.3     1  UNL1        0.2525
     35 O         144.2768  139.4303  156.2762 O.3     1  UNL1       -0.4700
@<TRIPOS>BOND
     1    34    35    1
     2    35    22    1
     3    22    23   ar
     4    23    24   ar
     5    24     1    1
     6     1     2   ar
     7     2     3   ar
     8     3     6    1
     9     6     7    1
    10     7     8    1
    11     8     9    1
    12     9    10   ar
    13    10    11   ar
    14    11    12   ar
    15    12    13   ar
    16    13    14   ar
    17    14    15    1
    18    15    18    1
    19    18    19    1
    20    19    20    1
    21    19    21    1
    22    15    16   am
    23    16    17    2
    24     3     4   ar
    25     4     5   ar
    26    24    25   ar
    27    25    26   ar
    28    26    27   ar
    29    27    28    1
    30    28    29   ar
    31    29    30   ar
    32    30    31   ar
    33    31    32    1
    34    31    33   ar
    35    27    22   ar
    36    33    28   ar
    37     5     1   ar
    38    16     6    1
    39    14     9   ar
@<TRIPOS>MOLECULE
*****
 35 39 0 0 0
SMALL
GASTEIGER

@<TRIPOS>ATOM
      1 C         142.6438  138.2132  158.3736 C.ar    1  UNL1        0.1233
      2 C         141.9382  138.4882  159.6684 C.ar    1  UNL1        0.1180
      3 N         142.5524  139.7123  160.2802 N.ar    1  UNL1       -0.2233
      4 N         143.6376  140.1939  159.3635 N.ar    1  UNL1       -0.0634
      5 N         143.6942  139.2674  158.1852 N.ar    1  UNL1       -0.1287
      6 C         142.1516  140.3440  161.5804 C.3     1  UNL1        0.1834
      7 C         141.0626  141.3720  161.4961 C.3     1  UNL1        0.0386
      8 C         140.4459  142.1740  162.6036 C.3     1  UNL1        0.0301
      9 C         140.7659  142.1462  164.0688 C.ar    1  UNL1       -0.0084
     10 C         139.9110  143.1116  164.8349 C.ar    1  UNL1       -0.0030
     11 C         140.0719  143.2402  166.3207 C.ar    1  UNL1       -0.0002
     12 C         141.0877  142.4034  167.0403 C.ar    1  UNL1        0.0013
     13 C         141.9426  141.4379  166.2742 C.ar    1  UNL1        0.0146
     14 C         141.7817  141.3093  164.7884 C.ar    1  UNL1        0.0501
     15 N         142.7283  140.2937  164.2205 N.am    1  UNL1       -0.2516
     16 C         142.8930  139.8640  162.7928 C.2     1  UNL1        0.2519
     17 O         143.9370  138.8160  162.5448 O.2     1  UNL1       -0.2724
     18 C         143.6295  139.6184  165.2114 C.3     1  UNL1        0.1703
     19 C         143.2678  138.2681  165.7555 C.3     1  UNL1        0.3384
     20 F         142.0913  137.5246  165.1961 F       1  UNL1       -0.1965
     21 F         144.0828  137.6614  166.8590 F       1  UNL1       -0.1965
     22 C         142.9271  134.7299  156.4933 C.ar    1  UNL1        0.1547
     23 C         143.2204  135.8604  157.4343 C.ar    1  UNL1        0.0400
     24 C         142.3506  137.0825  157.4326 C.ar    1  UNL1        0.0241
     25 C         141.1876  137.1739  156.4897 C.ar    1  UNL1        0.0033
     26 C         140.8944  136.0433  155.5487 C.ar    1  UNL1        0.0207
     27 C         141.7641  134.8213  155.5504 C.ar    1  UNL1        0.0994
     28 N         141.4708  133.6906  154.6093 N.ar    1  UNL1       -0.2839
     29 C         141.6366  133.7185  153.1187 C.ar    1  UNL1        0.1826
     30 N         141.2285  132.3787  152.5819 N.ar    1  UNL1       -0.2280
     31 C         140.8105  131.5227  153.7405 C.ar    1  UNL1        0.0786
     32 C         140.3276  130.1049  153.6602 C.3     1  UNL1        0.0538
     33 C         140.9603  132.3335  154.9935 C.ar    1  UNL1        0.0963
     34 C         144.5001  133.0895  157.7522 C.3     1  UNL1        0.2525
     35 O         143.7970  133.5078  156.4950 O.3     1  UNL1       -0.4700
@<TRIPOS>BOND
     1    34    35    1
     2    35    22    1
     3    22    23   ar
     4    23    24   ar
     5    24     1    1
     6     1     2   ar
     7     2     3   ar
     8     3     6    1
     9     6     7    1
    10     7     8    1
    11     8     9    1
    12     9    10   ar
    13    10    11   ar
    14    11    12   ar
    15    12    13   ar
    16    13    14   ar
    17    14    15    1
    18    15    18    1
    19    18    19    1
    20    19    20    1
    21    19    21    1
    22    15    16   am
    23    16    17    2
    24     3     4   ar
    25     4     5   ar
    26    24    25   ar
    27    25    26   ar
    28    26    27   ar
    29    27    28    1
    30    28    29   ar
    31    29    30   ar
    32    30    31   ar
    33    31    32    1
    34    31    33   ar
    35    27    22   ar
    36    33    28   ar
    37     5     1   ar
    38    16     6    1
    39    14     9   ar
@<TRIPOS>MOLECULE
*****
 35 39 0 0 0
SMALL
GASTEIGER

@<TRIPOS>ATOM
      1 C         142.0492  138.9305  158.2636 C.ar    1  UNL1        0.1233
      2 C         141.4774  137.7008  157.6227 C.ar    1  UNL1        0.1180
      3 N         142.5214  137.1238  156.7133 N.ar    1  UNL1       -0.2233
      4 N         143.7385  137.9969  156.7921 N.ar    1  UNL1       -0.0634
      5 N         143.4467  139.1135  157.7502 N.ar    1  UNL1       -0.1287
      6 C         142.3741  135.8902  155.8726 C.3     1  UNL1        0.1834
      7 C         141.8156  136.1031  154.4968 C.3     1  UNL1        0.0386
      8 C         141.5499  135.0852  153.4276 C.3     1  UNL1        0.0301
      9 C         141.7770  133.6031  153.4699 C.ar    1  UNL1       -0.0084
     10 C         141.3750  132.9500  152.1809 C.ar    1  UNL1       -0.0030
     11 C         141.5220  131.4666  152.0139 C.ar    1  UNL1       -0.0002
     12 C         142.0710  130.6364  153.1360 C.ar    1  UNL1        0.0013
     13 C         142.4731  131.2895  154.4251 C.ar    1  UNL1        0.0146
     14 C         142.3261  132.7728  154.5921 C.ar    1  UNL1        0.0501
     15 N         142.7835  133.2197  155.9490 N.am    1  UNL1       -0.2516
     16 C         142.8049  134.6070  156.5189 C.2     1  UNL1        0.2519
     17 O         143.3260  134.7269  157.9203 O.2     1  UNL1       -0.2724
     18 C         143.2860  132.1357  156.8559 C.3     1  UNL1        0.1703
     19 C         144.7587  131.8721  156.9655 C.3     1  UNL1        0.3384
     20 F         145.5405  132.4474  158.1090 F       1  UNL1       -0.1965
     21 F         145.4492  131.0331  155.9315 F       1  UNL1       -0.1965
     22 C         139.6676  140.1270  161.2040 C.ar    1  UNL1        0.1547
     23 C         140.3699  139.2366  160.2222 C.ar    1  UNL1        0.0400
     24 C         141.3469  139.8208  159.2455 C.ar    1  UNL1        0.0241
     25 C         141.6217  141.2954  159.2506 C.ar    1  UNL1        0.0033
     26 C         140.9194  142.1858  160.2324 C.ar    1  UNL1        0.0207
     27 C         139.9424  141.6016  161.2091 C.ar    1  UNL1        0.0994
     28 N         139.2401  142.4920  162.1910 N.ar    1  UNL1       -0.2839
     29 C         137.8170  142.9572  162.0983 C.ar    1  UNL1        0.1826
     30 N         137.5351  143.8262  163.2879 N.ar    1  UNL1       -0.2280
     31 C         138.7837  143.8981  164.1159 C.ar    1  UNL1        0.0786
     32 C         138.9496  144.6607  165.3969 C.3     1  UNL1        0.0538
     33 C         139.8375  143.0735  163.4379 C.ar    1  UNL1        0.0963
     34 C         138.8068  138.1038  162.5881 C.3     1  UNL1        0.2525
     35 O         138.6906  139.5427  162.1808 O.3     1  UNL1       -0.4700
@<TRIPOS>BOND
     1    34    35    1
     2    35    22    1
     3    22    23   ar
     4    23    24   ar
     5    24     1    1
     6     1     2   ar
     7     2     3   ar
     8     3     6    1
     9     6     7    1
    10     7     8    1
    11     8     9    1
    12     9    10   ar
    13    10    11   ar
    14    11    12   ar
    15    12    13   ar
    16    13    14   ar
    17    14    15    1
    18    15    18    1
    19    18    19    1
    20    19    20    1
    21    19    21    1
    22    15    16   am
    23    16    17    2
    24     3     4   ar
    25     4     5   ar
    26    24    25   ar
    27    25    26   ar
    28    26    27   ar
    29    27    28    1
    30    28    29   ar
    31    29    30   ar
    32    30    31   ar
    33    31    32    1
    34    31    33   ar
    35    27    22   ar
    36    33    28   ar
    37     5     1   ar
    38    16     6    1
    39    14     9   ar
@<TRIPOS>MOLECULE
*****
 35 39 0 0 0
SMALL
GASTEIGER

@<TRIPOS>ATOM
      1 C         142.7776  138.1541  159.2097 C.ar    1  UNL1        0.1233
      2 C         142.2311  137.9912  160.5971 C.ar    1  UNL1        0.1180
      3 N         142.7673  139.1094  161.4408 N.ar    1  UNL1       -0.2233
      4 N         143.6452  139.9635  160.5749 N.ar    1  UNL1       -0.0634
      5 N         143.6516  139.3731  159.1960 N.ar    1  UNL1       -0.1287
      6 C         142.4767  139.3341  162.8952 C.3     1  UNL1        0.1834
      7 C         143.4702  138.7500  163.8552 C.3     1  UNL1        0.0386
      8 C         143.4633  138.8007  165.3543 C.3     1  UNL1        0.0301
      9 C         142.4613  139.4481  166.2637 C.ar    1  UNL1       -0.0084
     10 C         142.8310  139.2644  167.7058 C.ar    1  UNL1       -0.0030
     11 C         141.9579  139.8373  168.7826 C.ar    1  UNL1       -0.0002
     12 C         140.7153  140.5939  168.4173 C.ar    1  UNL1        0.0013
     13 C         140.3456  140.7775  166.9753 C.ar    1  UNL1        0.0146
     14 C         141.2187  140.2047  165.8985 C.ar    1  UNL1        0.0501
     15 N         140.6711  140.5007  164.5337 N.am    1  UNL1       -0.2516
     16 C         141.2309  140.1133  163.1971 C.2     1  UNL1        0.2519
     17 O         140.4406  140.5646  162.0048 O.2     1  UNL1       -0.2724
     18 C         139.3949  141.2882  164.5012 C.3     1  UNL1        0.1703
     19 C         138.0757  140.5767  164.4428 C.3     1  UNL1        0.3384
     20 F         137.1802  140.7536  163.2525 F       1  UNL1       -0.1965
     21 F         137.6521  139.6883  165.5747 F       1  UNL1       -0.1965
     22 C         143.0550  135.1305  156.6543 C.ar    1  UNL1        0.1547
     23 C         143.3336  136.0287  157.8227 C.ar    1  UNL1        0.0400
     24 C         142.4990  137.2558  158.0412 C.ar    1  UNL1        0.0241
     25 C         141.3858  137.5846  157.0911 C.ar    1  UNL1        0.0033
     26 C         141.1072  136.6863  155.9226 C.ar    1  UNL1        0.0207
     27 C         141.9417  135.4593  155.7042 C.ar    1  UNL1        0.0994
     28 N         141.6631  134.5609  154.5356 N.ar    1  UNL1       -0.2839
     29 C         141.7666  134.9397  153.0879 C.ar    1  UNL1        0.1826
     30 N         141.3995  133.7390  152.2673 N.ar    1  UNL1       -0.2280
     31 C         141.0691  132.6182  153.2077 C.ar    1  UNL1        0.0786
     32 C         140.6494  131.2326  152.8152 C.3     1  UNL1        0.0538
     33 C         141.2319  133.1261  154.6097 C.ar    1  UNL1        0.0963
     34 C         144.3893  133.1172  157.6115 C.3     1  UNL1        0.2525
     35 O         143.8896  133.9034  156.4358 O.3     1  UNL1       -0.4700
@<TRIPOS>BOND
     1    34    35    1
     2    35    22    1
     3    22    23   ar
     4    23    24   ar
     5    24     1    1
     6     1     2   ar
     7     2     3   ar
     8     3     6    1
     9     6     7    1
    10     7     8    1
    11     8     9    1
    12     9    10   ar
    13    10    11   ar
    14    11    12   ar
    15    12    13   ar
    16    13    14   ar
    17    14    15    1
    18    15    18    1
    19    18    19    1
    20    19    20    1
    21    19    21    1
    22    15    16   am
    23    16    17    2
    24     3     4   ar
    25     4     5   ar
    26    24    25   ar
    27    25    26   ar
    28    26    27   ar
    29    27    28    1
    30    28    29   ar
    31    29    30   ar
    32    30    31   ar
    33    31    32    1
    34    31    33   ar
    35    27    22   ar
    36    33    28   ar
    37     5     1   ar
    38    16     6    1
    39    14     9   ar
@<TRIPOS>MOLECULE
*****
 35 39 0 0 0
SMALL
GASTEIGER

@<TRIPOS>ATOM
      1 C         142.9049  137.2086  157.6154 C.ar    1  UNL1        0.1233
      2 C         142.6322  137.4930  159.0627 C.ar    1  UNL1        0.1180
      3 N         143.0203  138.9158  159.3367 N.ar    1  UNL1       -0.2233
      4 N         143.5329  139.5107  158.0587 N.ar    1  UNL1       -0.0634
      5 N         143.4616  138.4556  156.9949 N.ar    1  UNL1       -0.1287
      6 C         142.9144  139.6200  160.6569 C.3     1  UNL1        0.1834
      7 C         144.1964  139.7644  161.4221 C.3     1  UNL1        0.0386
      8 C         144.4210  140.4112  162.7567 C.3     1  UNL1        0.0301
      9 C         143.4193  141.0733  163.6557 C.ar    1  UNL1       -0.0084
     10 C         144.0645  141.5938  164.9058 C.ar    1  UNL1       -0.0030
     11 C         143.2358  142.2931  165.9422 C.ar    1  UNL1       -0.0002
     12 C         141.7619  142.4719  165.7286 C.ar    1  UNL1        0.0013
     13 C         141.1167  141.9515  164.4785 C.ar    1  UNL1        0.0146
     14 C         141.9454  141.2522  163.4421 C.ar    1  UNL1        0.0501
     15 N         141.1093  140.8131  162.2767 N.am    1  UNL1       -0.2516
     16 C         141.5404  140.0867  161.0371 C.2     1  UNL1        0.2519
     17 O         140.4542  139.7875  160.0470 O.2     1  UNL1       -0.2724
     18 C         139.6488  141.1442  162.3621 C.3     1  UNL1        0.1703
     19 C         138.6790  140.1284  162.8893 C.3     1  UNL1        0.3384
     20 F         137.4939  140.5707  163.6955 F       1  UNL1       -0.1965
     21 F         138.8944  138.6705  162.6101 F       1  UNL1       -0.1965
     22 C         143.1194  133.3593  156.6738 C.ar    1  UNL1        0.1547
     23 C         143.3610  134.6619  157.3771 C.ar    1  UNL1        0.0400
     24 C         142.6634  135.9058  156.9122 C.ar    1  UNL1        0.0241
     25 C         141.7244  135.8470  155.7440 C.ar    1  UNL1        0.0033
     26 C         141.4828  134.5443  155.0407 C.ar    1  UNL1        0.0207
     27 C         142.1803  133.3005  155.5056 C.ar    1  UNL1        0.0994
     28 N         141.9388  131.9977  154.8023 N.ar    1  UNL1       -0.2839
     29 C         142.8705  131.3332  153.8326 C.ar    1  UNL1        0.1826
     30 N         142.2306  130.0556  153.3763 N.ar    1  UNL1       -0.2280
     31 C         140.9034  129.9305  154.0638 C.ar    1  UNL1        0.0786
     32 C         139.9278  128.8031  153.8990 C.3     1  UNL1        0.0538
     33 C         140.7230  131.1308  154.9452 C.ar    1  UNL1        0.0963
     34 C         145.1262  132.2161  157.8637 C.3     1  UNL1        0.2525
     35 O         143.8169  132.1154  157.1387 O.3     1  UNL1       -0.4700
@<TRIPOS>BOND
     1    34    35    1
     2    35    22    1
     3    22    23   ar
     4    23    24   ar
     5    24     1    1
     6     1     2   ar
     7     2     3   ar
     8     3     6    1
     9     6     7    1
    10     7     8    1
    11     8     9    1
    12     9    10   ar
    13    10    11   ar
    14    11    12   ar
    15    12    13   ar
    16    13    14   ar
    17    14    15    1
    18    15    18    1
    19    18    19    1
    20    19    20    1
    21    19    21    1
    22    15    16   am
    23    16    17    2
    24     3     4   ar
    25     4     5   ar
    26    24    25   ar
    27    25    26   ar
    28    26    27   ar
    29    27    28    1
    30    28    29   ar
    31    29    30   ar
    32    30    31   ar
    33    31    32    1
    34    31    33   ar
    35    27    22   ar
    36    33    28   ar
    37     5     1   ar
    38    16     6    1
    39    14     9   ar
@<TRIPOS>MOLECULE
*****
 35 39 0 0 0
SMALL
GASTEIGER

@<TRIPOS>ATOM
      1 C         143.0137  139.1738  157.7868 C.ar    1  UNL1        0.1233
      2 C         142.2385  137.9404  157.4292 C.ar    1  UNL1        0.1180
      3 N         142.9758  137.2312  156.3322 N.ar    1  UNL1       -0.2233
      4 N         144.2067  138.0264  156.0117 N.ar    1  UNL1       -0.0634
      5 N         144.2301  139.2269  156.9107 N.ar    1  UNL1       -0.1287
      6 C         142.5560  135.9516  155.6717 C.3     1  UNL1        0.1834
      7 C         141.8533  136.0991  154.3547 C.3     1  UNL1        0.0386
      8 C         141.3154  135.0251  153.4562 C.3     1  UNL1        0.0301
      9 C         141.3474  133.5384  153.6528 C.ar    1  UNL1       -0.0084
     10 C         140.6949  132.8202  152.5089 C.ar    1  UNL1       -0.0030
     11 C         140.6202  131.3221  152.5087 C.ar    1  UNL1       -0.0002
     12 C         141.1980  130.5421  153.6523 C.ar    1  UNL1        0.0013
     13 C         141.8505  131.2603  154.7962 C.ar    1  UNL1        0.0146
     14 C         141.9252  132.7584  154.7964 C.ar    1  UNL1        0.0501
     15 N         142.6137  133.2727  156.0259 N.am    1  UNL1       -0.2516
     16 C         142.8944  134.6937  156.4155 C.2     1  UNL1        0.2519
     17 O         143.6079  134.8818  157.7214 O.2     1  UNL1       -0.2724
     18 C         143.0835  132.2275  156.9939 C.3     1  UNL1        0.1703
     19 C         144.5421  131.8885  157.0821 C.3     1  UNL1        0.3384
     20 F         145.2447  131.2857  155.9018 F       1  UNL1       -0.1965
     21 F         145.2979  132.1522  158.3506 F       1  UNL1       -0.1965
     22 C         143.0006  141.2134  161.1911 C.ar    1  UNL1        0.1547
     23 C         143.3760  140.2094  160.1418 C.ar    1  UNL1        0.0400
     24 C         142.6383  140.1778  158.8361 C.ar    1  UNL1        0.0241
     25 C         141.5253  141.1500  158.5798 C.ar    1  UNL1        0.0033
     26 C         141.1499  142.1540  159.6291 C.ar    1  UNL1        0.0207
     27 C         141.8876  142.1857  160.9347 C.ar    1  UNL1        0.0994
     28 N         141.5121  143.1897  161.9841 N.ar    1  UNL1       -0.2839
     29 C         142.2623  144.4472  162.3097 C.ar    1  UNL1        0.1826
     30 N         141.5344  145.1471  163.4189 N.ar    1  UNL1       -0.2280
     31 C         140.3344  144.3222  163.7788 C.ar    1  UNL1        0.0786
     32 C         139.3253  144.6496  164.8393 C.3     1  UNL1        0.0538
     33 C         140.3206  143.1125  162.8920 C.ar    1  UNL1        0.0963
     34 C         145.1465  141.7588  162.5503 C.3     1  UNL1        0.2525
     35 O         143.7383  141.2450  162.4968 O.3     1  UNL1       -0.4700
@<TRIPOS>BOND
     1    34    35    1
     2    35    22    1
     3    22    23   ar
     4    23    24   ar
     5    24     1    1
     6     1     2   ar
     7     2     3   ar
     8     3     6    1
     9     6     7    1
    10     7     8    1
    11     8     9    1
    12     9    10   ar
    13    10    11   ar
    14    11    12   ar
    15    12    13   ar
    16    13    14   ar
    17    14    15    1
    18    15    18    1
    19    18    19    1
    20    19    20    1
    21    19    21    1
    22    15    16   am
    23    16    17    2
    24     3     4   ar
    25     4     5   ar
    26    24    25   ar
    27    25    26   ar
    28    26    27   ar
    29    27    28    1
    30    28    29   ar
    31    29    30   ar
    32    30    31   ar
    33    31    32    1
    34    31    33   ar
    35    27    22   ar
    36    33    28   ar
    37     5     1   ar
    38    16     6    1
    39    14     9   ar
@<TRIPOS>MOLECULE
*****
 35 39 0 0 0
SMALL
GASTEIGER

@<TRIPOS>ATOM
      1 C         141.2971  141.6416  160.5211 C.ar    1  UNL1        0.1233
      2 C         141.1749  142.0081  161.9705 C.ar    1  UNL1        0.1180
      3 N         141.3632  140.7605  162.7816 N.ar    1  UNL1       -0.2233
      4 N         141.6018  139.6229  161.8335 N.ar    1  UNL1       -0.0634
      5 N         141.5610  140.1675  160.4364 N.ar    1  UNL1       -0.1287
      6 C         141.3204  140.6668  164.2781 C.3     1  UNL1        0.1834
      7 C         142.6019  140.9905  164.9874 C.3     1  UNL1        0.0386
      8 C         142.8812  140.9891  166.4611 C.3     1  UNL1        0.0301
      9 C         141.9481  140.6639  167.5896 C.ar    1  UNL1       -0.0084
     10 C         142.6325  140.7849  168.9189 C.ar    1  UNL1       -0.0030
     11 C         141.8739  140.5017  170.1815 C.ar    1  UNL1       -0.0002
     12 C         140.4309  140.0974  170.1149 C.ar    1  UNL1        0.0013
     13 C         139.7466  139.9763  168.7857 C.ar    1  UNL1        0.0146
     14 C         140.5051  140.2595  167.5231 C.ar    1  UNL1        0.0501
     15 N         139.6389  140.0807  166.3115 N.am    1  UNL1       -0.2516
     16 C         140.0017  140.2619  164.8674 C.2     1  UNL1        0.2519
     17 O         138.9003  140.0042  163.8823 O.2     1  UNL1       -0.2724
     18 C         138.2226  139.6657  166.5796 C.3     1  UNL1        0.1703
     19 C         137.8614  138.2102  166.6150 C.3     1  UNL1        0.3384
     20 F         138.5212  137.2505  165.6697 F       1  UNL1       -0.1965
     21 F         136.8403  137.7146  167.5957 F       1  UNL1       -0.1965
     22 C         139.8453  143.4764  157.3156 C.ar    1  UNL1        0.1547
     23 C         139.9657  142.5342  158.4764 C.ar    1  UNL1        0.0400
     24 C         141.1766  142.5839  159.3603 C.ar    1  UNL1        0.0241
     25 C         142.2671  143.5759  159.0833 C.ar    1  UNL1        0.0033
     26 C         142.1466  144.5182  157.9224 C.ar    1  UNL1        0.0207
     27 C         140.9358  144.4684  157.0386 C.ar    1  UNL1        0.0994
     28 N         140.8153  145.4108  155.8777 N.ar    1  UNL1       -0.2839
     29 C         141.3390  145.1743  154.4921 C.ar    1  UNL1        0.1826
     30 N         140.9974  146.3724  153.6568 N.ar    1  UNL1       -0.2280
     31 C         140.2626  147.3493  154.5260 C.ar    1  UNL1        0.0786
     32 C         139.7333  148.6859  154.0978 C.3     1  UNL1        0.0538
     33 C         140.1501  146.7550  155.8987 C.ar    1  UNL1        0.0963
     34 C         137.4251  142.6490  156.8594 C.3     1  UNL1        0.2525
     35 O         138.6344  143.4267  156.4318 O.3     1  UNL1       -0.4700
@<TRIPOS>BOND
     1    34    35    1
     2    35    22    1
     3    22    23   ar
     4    23    24   ar
     5    24     1    1
     6     1     2   ar
     7     2     3   ar
     8     3     6    1
     9     6     7    1
    10     7     8    1
    11     8     9    1
    12     9    10   ar
    13    10    11   ar
    14    11    12   ar
    15    12    13   ar
    16    13    14   ar
    17    14    15    1
    18    15    18    1
    19    18    19    1
    20    19    20    1
    21    19    21    1
    22    15    16   am
    23    16    17    2
    24     3     4   ar
    25     4     5   ar
    26    24    25   ar
    27    25    26   ar
    28    26    27   ar
    29    27    28    1
    30    28    29   ar
    31    29    30   ar
    32    30    31   ar
    33    31    32    1
    34    31    33   ar
    35    27    22   ar
    36    33    28   ar
    37     5     1   ar
    38    16     6    1
    39    14     9   ar
