@<TRIPOS>MOLECULE
*****
 33 36 0 0 0
SMALL
GASTEIGER

@<TRIPOS>ATOM
      1 C         142.4726  140.3748  168.2343 C.3     1  UNL1        0.0782
      2 C         142.8312  141.8303  168.2870 C.3     1  UNL1        0.0372
      3 C         143.4106  142.5042  167.0787 C.3     1  UNL1        0.0741
      4 N         143.6314  141.7227  165.8177 N.3     1  UNL1       -0.2688
      5 C         143.2729  140.2671  165.7649 C.3     1  UNL1        0.0741
      6 C         142.6935  139.5931  166.9732 C.3     1  UNL1        0.0372
      7 C         142.7489  138.7972  170.2800 C.3     1  UNL1        0.1148
      8 N         141.8932  139.7008  169.4426 N.am    1  UNL1       -0.2790
      9 C         140.4580  139.9304  169.8135 C.2     1  UNL1        0.2301
     10 O         139.8785  139.2565  171.0218 O.2     1  UNL1       -0.2745
     11 C         139.6023  140.8340  168.9761 C.3     1  UNL1        0.1116
     12 C         139.2845  140.4636  167.5577 C.ar    1  UNL1       -0.0130
     13 C         139.6565  141.3910  166.4390 C.ar    1  UNL1       -0.0022
     14 C         139.3387  141.0205  165.0207 C.ar    1  UNL1        0.0190
     15 C         138.6489  139.7227  164.7210 C.ar    1  UNL1        0.0862
     16 C         138.2769  138.7953  165.8397 C.ar    1  UNL1        0.0190
     17 C         138.5947  139.1657  167.2580 C.ar    1  UNL1       -0.0022
     18 N         138.3311  139.3523  163.3026 N.ar    1  UNL1       -0.1886
     19 C         138.6375  138.0397  162.6443 C.ar    1  UNL1        0.2258
     20 N         138.1470  138.1056  161.2283 N.ar    1  UNL1       -0.1045
     21 N         137.5374  139.4589  161.0115 N.ar    1  UNL1       -0.0222
     22 N         137.6512  140.2294  162.2934 N.ar    1  UNL1       -0.0385
     23 C         144.2109  142.3967  164.6093 C.3     1  UNL1        0.1007
     24 C         143.3162  143.1468  163.6677 C.ar    1  UNL1        0.0130
     25 C         141.9226  143.5103  164.0867 C.ar    1  UNL1        0.0001
     26 C         141.0278  144.2605  163.1450 C.ar    1  UNL1        0.0228
     27 C         141.5267  144.6471  161.7843 C.ar    1  UNL1        0.1526
     28 N         142.9204  144.2835  161.3653 N.ar    1  UNL1       -0.2401
     29 C         143.8151  143.5334  162.3069 C.ar    1  UNL1        0.0958
     30 C         140.6320  145.3972  160.8426 C.3     1  UNL1        0.4348
     31 F         139.7373  146.1473  159.9010 F       1  UNL1       -0.1644
     32 F         139.6138  145.5518  161.9332 F       1  UNL1       -0.1644
     33 F         141.6502  145.2426  159.7521 F       1  UNL1       -0.1644
@<TRIPOS>BOND
     1     7     8    1
     2     8     9   am
     3     9    10    2
     4     9    11    1
     5    11    12    1
     6    12    13   ar
     7    13    14   ar
     8    14    15   ar
     9    15    18    1
    10    18    19   ar
    11    19    20   ar
    12    20    21   ar
    13    21    22   ar
    14    15    16   ar
    15    16    17   ar
    16     8     1    1
    17     1     2    1
    18     2     3    1
    19     3     4    1
    20     4    23    1
    21    23    24    1
    22    24    25   ar
    23    25    26   ar
    24    26    27   ar
    25    27    30    1
    26    30    31    1
    27    30    32    1
    28    30    33    1
    29    27    28   ar
    30    28    29   ar
    31     4     5    1
    32     5     6    1
    33    17    12   ar
    34     6     1    1
    35    22    18   ar
    36    29    24   ar
@<TRIPOS>MOLECULE
*****
 33 36 0 0 0
SMALL
GASTEIGER

@<TRIPOS>ATOM
      1 C         143.1206  140.9695  161.6468 C.3     1  UNL1        0.0782
      2 C         141.8232  141.3682  162.2853 C.3     1  UNL1        0.0372
      3 C         141.8176  141.9739  163.6576 C.3     1  UNL1        0.0741
      4 N         143.1094  142.1809  164.3913 N.3     1  UNL1       -0.2688
      5 C         144.4069  141.7822  163.7528 C.3     1  UNL1        0.0741
      6 C         144.4125  141.1765  162.3805 C.3     1  UNL1        0.0372
      7 C         142.9944  141.2428  159.0662 C.3     1  UNL1        0.1148
      8 N         143.1262  140.3638  160.2745 N.am    1  UNL1       -0.2790
      9 C         143.2637  138.8791  160.1106 C.2     1  UNL1        0.2301
     10 O         143.2694  138.2735  158.7383 O.2     1  UNL1       -0.2745
     11 C         143.3956  138.0002  161.3189 C.3     1  UNL1        0.1116
     12 C         142.3441  138.0324  162.3882 C.ar    1  UNL1       -0.0130
     13 C         140.9019  137.8319  162.0281 C.ar    1  UNL1       -0.0022
     14 C         139.8504  137.8642  163.0974 C.ar    1  UNL1        0.0190
     15 C         140.2412  138.0969  164.5267 C.ar    1  UNL1        0.0862
     16 C         141.6835  138.2973  164.8868 C.ar    1  UNL1        0.0190
     17 C         142.7349  138.2651  163.8175 C.ar    1  UNL1       -0.0022
     18 N         139.1897  138.1291  165.5960 N.ar    1  UNL1       -0.1886
     19 C         138.9740  139.2339  166.5874 C.ar    1  UNL1        0.2258
     20 N         137.8203  138.8499  167.4658 N.ar    1  UNL1       -0.1045
     21 N         137.3230  137.5076  167.0172 N.ar    1  UNL1       -0.0222
     22 N         138.1693  137.0622  165.8616 N.ar    1  UNL1       -0.0385
     23 C         143.1038  142.7865  165.7636 C.3     1  UNL1        0.1007
     24 C         142.3724  142.1044  166.8815 C.ar    1  UNL1        0.0130
     25 C         142.9297  140.8503  167.4871 C.ar    1  UNL1        0.0001
     26 C         142.1984  140.1681  168.6051 C.ar    1  UNL1        0.0228
     27 C         140.9098  140.7399  169.1174 C.ar    1  UNL1        0.1526
     28 N         140.3525  141.9940  168.5117 N.ar    1  UNL1       -0.2401
     29 C         141.0838  142.6762  167.3938 C.ar    1  UNL1        0.0958
     30 C         140.1784  140.0578  170.2353 C.3     1  UNL1        0.4348
     31 F         139.4471  139.3756  171.3532 F       1  UNL1       -0.1644
     32 F         139.0593  141.0484  170.1076 F       1  UNL1       -0.1644
     33 F         141.2975  139.0672  170.3629 F       1  UNL1       -0.1644
@<TRIPOS>BOND
     1     7     8    1
     2     8     9   am
     3     9    10    2
     4     9    11    1
     5    11    12    1
     6    12    13   ar
     7    13    14   ar
     8    14    15   ar
     9    15    18    1
    10    18    19   ar
    11    19    20   ar
    12    20    21   ar
    13    21    22   ar
    14    15    16   ar
    15    16    17   ar
    16     8     1    1
    17     1     2    1
    18     2     3    1
    19     3     4    1
    20     4    23    1
    21    23    24    1
    22    24    25   ar
    23    25    26   ar
    24    26    27   ar
    25    27    30    1
    26    30    31    1
    27    30    32    1
    28    30    33    1
    29    27    28   ar
    30    28    29   ar
    31     4     5    1
    32     5     6    1
    33    17    12   ar
    34     6     1    1
    35    22    18   ar
    36    29    24   ar
@<TRIPOS>MOLECULE
*****
 33 36 0 0 0
SMALL
GASTEIGER

@<TRIPOS>ATOM
      1 C         141.3844  142.5922  167.8610 C.3     1  UNL1        0.0782
      2 C         142.8471  142.3844  167.6012 C.3     1  UNL1        0.0372
      3 C         143.3815  142.4807  166.2030 C.3     1  UNL1        0.0741
      4 N         142.4533  142.7847  165.0646 N.3     1  UNL1       -0.2688
      5 C         140.9906  142.9925  165.3244 C.3     1  UNL1        0.0741
      6 C         140.4562  142.8962  166.7226 C.3     1  UNL1        0.0372
      7 C         140.4879  143.7422  170.0113 C.3     1  UNL1        0.1148
      8 N         140.8500  142.4959  169.2593 N.am    1  UNL1       -0.2790
      9 C         140.6776  141.1532  169.9055 C.2     1  UNL1        0.2301
     10 O         140.1432  141.0569  171.3038 O.2     1  UNL1       -0.2745
     11 C         141.0397  139.9069  169.1535 C.3     1  UNL1        0.1116
     12 C         140.4617  139.6579  167.7919 C.ar    1  UNL1       -0.0130
     13 C         138.9777  139.7230  167.5837 C.ar    1  UNL1       -0.0022
     14 C         138.3998  139.4740  166.2221 C.ar    1  UNL1        0.0190
     15 C         139.3059  139.1599  165.0687 C.ar    1  UNL1        0.0862
     16 C         140.7899  139.0947  165.2769 C.ar    1  UNL1        0.0190
     17 C         141.3678  139.3437  166.6385 C.ar    1  UNL1       -0.0022
     18 N         138.7280  138.9108  163.7071 N.ar    1  UNL1       -0.1886
     19 C         138.0734  139.9337  162.8266 C.ar    1  UNL1        0.2258
     20 N         137.6440  139.2504  161.5622 N.ar    1  UNL1       -0.1045
     21 N         138.0332  137.8051  161.6613 N.ar    1  UNL1       -0.0222
     22 N         138.7031  137.5953  162.9869 N.ar    1  UNL1       -0.0385
     23 C         142.9878  142.8810  163.6663 C.3     1  UNL1        0.1007
     24 C         143.0000  141.6688  162.7829 C.ar    1  UNL1        0.0130
     25 C         141.7072  141.0664  162.3183 C.ar    1  UNL1        0.0001
     26 C         141.7194  139.8542  161.4348 C.ar    1  UNL1        0.0228
     27 C         143.0243  139.2444  161.0161 C.ar    1  UNL1        0.1526
     28 N         144.3171  139.8468  161.4808 N.ar    1  UNL1       -0.2401
     29 C         144.3049  141.0590  162.3642 C.ar    1  UNL1        0.0958
     30 C         143.0364  138.0322  160.1327 C.3     1  UNL1        0.4348
     31 F         143.0486  136.8200  159.2493 F       1  UNL1       -0.1644
     32 F         143.9773  137.3503  161.0813 F       1  UNL1       -0.1644
     33 F         142.0956  138.7140  159.1841 F       1  UNL1       -0.1644
@<TRIPOS>BOND
     1     7     8    1
     2     8     9   am
     3     9    10    2
     4     9    11    1
     5    11    12    1
     6    12    13   ar
     7    13    14   ar
     8    14    15   ar
     9    15    18    1
    10    18    19   ar
    11    19    20   ar
    12    20    21   ar
    13    21    22   ar
    14    15    16   ar
    15    16    17   ar
    16     8     1    1
    17     1     2    1
    18     2     3    1
    19     3     4    1
    20     4    23    1
    21    23    24    1
    22    24    25   ar
    23    25    26   ar
    24    26    27   ar
    25    27    30    1
    26    30    31    1
    27    30    32    1
    28    30    33    1
    29    27    28   ar
    30    28    29   ar
    31     4     5    1
    32     5     6    1
    33    17    12   ar
    34     6     1    1
    35    22    18   ar
    36    29    24   ar
@<TRIPOS>MOLECULE
*****
 33 36 0 0 0
SMALL
GASTEIGER

@<TRIPOS>ATOM
      1 C         140.5905  140.5586  167.1062 C.3     1  UNL1        0.0782
      2 C         141.7680  139.7298  166.6861 C.3     1  UNL1        0.0372
      3 C         142.9318  140.3761  165.9949 C.3     1  UNL1        0.0741
      4 N         142.9181  141.8513  165.7237 N.3     1  UNL1       -0.2688
      5 C         141.7406  142.6803  166.1438 C.3     1  UNL1        0.0741
      6 C         140.5768  142.0339  166.8351 C.3     1  UNL1        0.0372
      7 C         139.2553  140.0657  169.2797 C.3     1  UNL1        0.1148
      8 N         139.4268  139.9123  167.7975 N.am    1  UNL1       -0.2790
      9 C         138.4344  139.1125  167.0065 C.2     1  UNL1        0.2301
     10 O         137.2706  138.4661  167.6977 O.2     1  UNL1       -0.2745
     11 C         138.6059  138.9591  165.5242 C.3     1  UNL1        0.1116
     12 C         138.7848  140.1723  164.6604 C.ar    1  UNL1       -0.0130
     13 C         137.8408  141.3307  164.7894 C.ar    1  UNL1       -0.0022
     14 C         138.0198  142.5438  163.9255 C.ar    1  UNL1        0.0190
     15 C         139.1428  142.5985  162.9327 C.ar    1  UNL1        0.0862
     16 C         140.0869  141.4400  162.8037 C.ar    1  UNL1        0.0190
     17 C         139.9079  140.2269  163.6675 C.ar    1  UNL1       -0.0022
     18 N         139.3218  143.8117  162.0688 N.ar    1  UNL1       -0.1886
     19 C         139.3239  145.2361  162.5388 C.ar    1  UNL1        0.2258
     20 N         139.5335  146.1182  161.3438 N.ar    1  UNL1       -0.1045
     21 N         139.6609  145.2389  160.1352 N.ar    1  UNL1       -0.0222
     22 N         139.5300  143.8133  160.5833 N.ar    1  UNL1       -0.0385
     23 C         144.0819  142.4977  165.0324 C.3     1  UNL1        0.1007
     24 C         144.1116  142.5834  163.5352 C.ar    1  UNL1        0.0130
     25 C         143.0950  143.4155  162.8113 C.ar    1  UNL1        0.0001
     26 C         143.1247  143.5012  161.3140 C.ar    1  UNL1        0.0228
     27 C         144.1711  142.7549  160.5407 C.ar    1  UNL1        0.1526
     28 N         145.1877  141.9228  161.2647 N.ar    1  UNL1       -0.2401
     29 C         145.1580  141.8370  162.7619 C.ar    1  UNL1        0.0958
     30 C         144.2008  142.8406  159.0435 C.3     1  UNL1        0.4348
     31 F         144.2305  142.9263  157.5462 F       1  UNL1       -0.1644
     32 F         145.6977  142.7472  159.0678 F       1  UNL1       -0.1644
     33 F         142.7039  142.9340  159.0191 F       1  UNL1       -0.1644
@<TRIPOS>BOND
     1     7     8    1
     2     8     9   am
     3     9    10    2
     4     9    11    1
     5    11    12    1
     6    12    13   ar
     7    13    14   ar
     8    14    15   ar
     9    15    18    1
    10    18    19   ar
    11    19    20   ar
    12    20    21   ar
    13    21    22   ar
    14    15    16   ar
    15    16    17   ar
    16     8     1    1
    17     1     2    1
    18     2     3    1
    19     3     4    1
    20     4    23    1
    21    23    24    1
    22    24    25   ar
    23    25    26   ar
    24    26    27   ar
    25    27    30    1
    26    30    31    1
    27    30    32    1
    28    30    33    1
    29    27    28   ar
    30    28    29   ar
    31     4     5    1
    32     5     6    1
    33    17    12   ar
    34     6     1    1
    35    22    18   ar
    36    29    24   ar
@<TRIPOS>MOLECULE
*****
 33 36 0 0 0
SMALL
GASTEIGER

@<TRIPOS>ATOM
      1 C         140.7380  140.4616  167.0312 C.3     1  UNL1        0.0782
      2 C         140.7861  141.9352  166.7555 C.3     1  UNL1        0.0372
      3 C         141.9610  142.5251  166.0332 C.3     1  UNL1        0.0741
      4 N         143.0877  141.6415  165.5867 N.3     1  UNL1       -0.2688
      5 C         143.0397  140.1678  165.8624 C.3     1  UNL1        0.0741
      6 C         141.8648  139.5778  166.5846 C.3     1  UNL1        0.0372
      7 C         139.4486  140.0155  169.2421 C.3     1  UNL1        0.1148
      8 N         139.5631  139.8716  167.7535 N.am    1  UNL1       -0.2790
      9 C         138.5029  139.1378  166.9870 C.2     1  UNL1        0.2301
     10 O         137.3280  138.5479  167.7093 O.2     1  UNL1       -0.2745
     11 C         138.6174  138.9940  165.4983 C.3     1  UNL1        0.1116
     12 C         138.7824  140.2115  164.6377 C.ar    1  UNL1       -0.0130
     13 C         139.8972  140.2766  163.6363 C.ar    1  UNL1       -0.0022
     14 C         140.0621  141.4940  162.7757 C.ar    1  UNL1        0.0190
     15 C         139.1123  142.6463  162.9165 C.ar    1  UNL1        0.0862
     16 C         137.9974  142.5812  163.9179 C.ar    1  UNL1        0.0190
     17 C         137.8325  141.3638  164.7785 C.ar    1  UNL1       -0.0022
     18 N         139.2772  143.8638  162.0559 N.ar    1  UNL1       -0.1886
     19 C         139.9651  143.9153  160.7239 C.ar    1  UNL1        0.2258
     20 N         139.8963  145.3267  160.2209 N.ar    1  UNL1       -0.1045
     21 N         139.1659  146.1476  161.2420 N.ar    1  UNL1       -0.0222
     22 N         138.7833  145.2434  162.3761 N.ar    1  UNL1       -0.0385
     23 C         144.2626  142.2314  164.8644 C.3     1  UNL1        0.1007
     24 C         144.2981  142.2318  163.3648 C.ar    1  UNL1        0.0130
     25 C         144.2277  140.9360  162.6127 C.ar    1  UNL1        0.0001
     26 C         144.2631  140.9364  161.1130 C.ar    1  UNL1        0.0228
     27 C         144.3690  142.2326  160.3657 C.ar    1  UNL1        0.1526
     28 N         144.4394  143.5285  161.1179 N.ar    1  UNL1       -0.2401
     29 C         144.4039  143.5281  162.6175 C.ar    1  UNL1        0.0958
     30 C         144.4045  142.2330  158.8661 C.3     1  UNL1        0.4348
     31 F         144.4400  142.2334  157.3666 F       1  UNL1       -0.1644
     32 F         145.7729  142.8465  158.8987 F       1  UNL1       -0.1644
     33 F         143.0361  141.6195  158.8336 F       1  UNL1       -0.1644
@<TRIPOS>BOND
     1     7     8    1
     2     8     9   am
     3     9    10    2
     4     9    11    1
     5    11    12    1
     6    12    13   ar
     7    13    14   ar
     8    14    15   ar
     9    15    18    1
    10    18    19   ar
    11    19    20   ar
    12    20    21   ar
    13    21    22   ar
    14    15    16   ar
    15    16    17   ar
    16     8     1    1
    17     1     2    1
    18     2     3    1
    19     3     4    1
    20     4    23    1
    21    23    24    1
    22    24    25   ar
    23    25    26   ar
    24    26    27   ar
    25    27    30    1
    26    30    31    1
    27    30    32    1
    28    30    33    1
    29    27    28   ar
    30    28    29   ar
    31     4     5    1
    32     5     6    1
    33    17    12   ar
    34     6     1    1
    35    22    18   ar
    36    29    24   ar
@<TRIPOS>MOLECULE
*****
 33 36 0 0 0
SMALL
GASTEIGER

@<TRIPOS>ATOM
      1 C         142.3771  140.2415  159.2471 C.3     1  UNL1        0.0782
      2 C         141.0069  140.8248  159.0680 C.3     1  UNL1        0.0372
      3 C         139.8332  140.2131  159.7739 C.3     1  UNL1        0.0741
      4 N         140.0298  139.0181  160.6590 N.3     1  UNL1       -0.2688
      5 C         141.4001  138.4347  160.8381 C.3     1  UNL1        0.0741
      6 C         142.5738  139.0464  160.1322 C.3     1  UNL1        0.0372
      7 C         144.1116  140.1993  157.3133 C.3     1  UNL1        0.1148
      8 N         143.5508  140.8531  158.5412 N.am    1  UNL1       -0.2790
      9 C         144.1637  142.1188  159.0633 C.2     1  UNL1        0.2301
     10 O         145.3374  142.7305  158.3574 O.2     1  UNL1       -0.2745
     11 C         143.6030  142.7727  160.2913 C.3     1  UNL1        0.1116
     12 C         143.5655  142.0226  161.5898 C.ar    1  UNL1       -0.0130
     13 C         144.8044  141.3514  162.1042 C.ar    1  UNL1       -0.0022
     14 C         144.7669  140.6014  163.4027 C.ar    1  UNL1        0.0190
     15 C         143.4905  140.5225  164.1867 C.ar    1  UNL1        0.0862
     16 C         142.2517  141.1937  163.6722 C.ar    1  UNL1        0.0190
     17 C         142.2892  141.9437  162.3738 C.ar    1  UNL1       -0.0022
     18 N         143.4531  139.7724  165.4852 N.ar    1  UNL1       -0.1886
     19 C         142.7716  140.2218  166.7436 C.ar    1  UNL1        0.2258
     20 N         142.9879  139.1684  167.7894 N.ar    1  UNL1       -0.1045
     21 N         143.8030  138.0680  167.1772 N.ar    1  UNL1       -0.0222
     22 N         144.0905  138.4413  165.7532 N.ar    1  UNL1       -0.0385
     23 C         138.8561  138.4064  161.3649 C.3     1  UNL1        0.1007
     24 C         138.6881  138.5957  162.8433 C.ar    1  UNL1        0.0130
     25 C         138.9994  137.4694  163.7838 C.ar    1  UNL1        0.0001
     26 C         138.8315  137.6587  165.2623 C.ar    1  UNL1        0.0228
     27 C         138.3522  138.9743  165.8003 C.ar    1  UNL1        0.1526
     28 N         138.0409  140.1006  164.8598 N.ar    1  UNL1       -0.2401
     29 C         138.2089  139.9113  163.3813 C.ar    1  UNL1        0.0958
     30 C         138.1842  139.1636  167.2788 C.3     1  UNL1        0.4348
     31 F         138.0163  139.3529  168.7573 F       1  UNL1       -0.1644
     32 F         137.0372  138.1971  167.2723 F       1  UNL1       -0.1644
     33 F         139.3313  140.1301  167.2854 F       1  UNL1       -0.1644
@<TRIPOS>BOND
     1     7     8    1
     2     8     9   am
     3     9    10    2
     4     9    11    1
     5    11    12    1
     6    12    13   ar
     7    13    14   ar
     8    14    15   ar
     9    15    18    1
    10    18    19   ar
    11    19    20   ar
    12    20    21   ar
    13    21    22   ar
    14    15    16   ar
    15    16    17   ar
    16     8     1    1
    17     1     2    1
    18     2     3    1
    19     3     4    1
    20     4    23    1
    21    23    24    1
    22    24    25   ar
    23    25    26   ar
    24    26    27   ar
    25    27    30    1
    26    30    31    1
    27    30    32    1
    28    30    33    1
    29    27    28   ar
    30    28    29   ar
    31     4     5    1
    32     5     6    1
    33    17    12   ar
    34     6     1    1
    35    22    18   ar
    36    29    24   ar
@<TRIPOS>MOLECULE
*****
 33 36 0 0 0
SMALL
GASTEIGER

@<TRIPOS>ATOM
      1 C         142.6185  138.6638  160.1863 C.3     1  UNL1        0.0782
      2 C         143.4874  139.8823  160.2872 C.3     1  UNL1        0.0372
      3 C         144.1825  140.2030  161.5772 C.3     1  UNL1        0.0741
      4 N         144.0087  139.3052  162.7661 N.3     1  UNL1       -0.2688
      5 C         143.1398  138.0866  162.6652 C.3     1  UNL1        0.0741
      6 C         142.4447  137.7659  161.3753 C.3     1  UNL1        0.0372
      7 C         142.4917  137.3035  157.9764 C.3     1  UNL1        0.1148
      8 N         141.9234  138.3431  158.8963 N.am    1  UNL1       -0.2790
      9 C         140.6599  139.0620  158.5263 C.2     1  UNL1        0.2301
     10 O         139.9648  138.7413  157.2364 O.2     1  UNL1       -0.2745
     11 C         140.0916  140.1016  159.4462 C.3     1  UNL1        0.1116
     12 C         139.6929  139.7293  160.8436 C.ar    1  UNL1       -0.0130
     13 C         140.0755  140.6134  161.9933 C.ar    1  UNL1       -0.0022
     14 C         139.6768  140.2412  163.3906 C.ar    1  UNL1        0.0190
     15 C         138.8956  138.9848  163.6381 C.ar    1  UNL1        0.0862
     16 C         138.5131  138.1007  162.4884 C.ar    1  UNL1        0.0190
     17 C         138.9117  138.4730  161.0911 C.ar    1  UNL1       -0.0022
     18 N         138.4970  138.6126  165.0355 N.ar    1  UNL1       -0.1886
     19 C         138.4072  139.5472  166.2053 C.ar    1  UNL1        0.2258
     20 N         137.9729  138.7527  167.4012 N.ar    1  UNL1       -0.1045
     21 N         137.7942  137.3270  166.9704 N.ar    1  UNL1       -0.0222
     22 N         138.1181  137.2404  165.5084 N.ar    1  UNL1       -0.0385
     23 C         144.7039  139.6260  164.0561 C.3     1  UNL1        0.1007
     24 C         143.9381  139.6066  165.3457 C.ar    1  UNL1        0.0130
     25 C         143.0177  140.7402  165.6885 C.ar    1  UNL1        0.0001
     26 C         142.2518  140.7209  166.9782 C.ar    1  UNL1        0.0228
     27 C         142.4065  139.5678  167.9250 C.ar    1  UNL1        0.1526
     28 N         143.3269  138.4340  167.5821 N.ar    1  UNL1       -0.2401
     29 C         144.0927  138.4535  166.2925 C.ar    1  UNL1        0.0958
     30 C         141.6407  139.5484  169.2146 C.3     1  UNL1        0.4348
     31 F         140.8749  139.5290  170.5042 F       1  UNL1       -0.1644
     32 F         142.5953  138.5313  169.7661 F       1  UNL1       -0.1644
     33 F         140.6861  140.5654  168.6631 F       1  UNL1       -0.1644
@<TRIPOS>BOND
     1     7     8    1
     2     8     9   am
     3     9    10    2
     4     9    11    1
     5    11    12    1
     6    12    13   ar
     7    13    14   ar
     8    14    15   ar
     9    15    18    1
    10    18    19   ar
    11    19    20   ar
    12    20    21   ar
    13    21    22   ar
    14    15    16   ar
    15    16    17   ar
    16     8     1    1
    17     1     2    1
    18     2     3    1
    19     3     4    1
    20     4    23    1
    21    23    24    1
    22    24    25   ar
    23    25    26   ar
    24    26    27   ar
    25    27    30    1
    26    30    31    1
    27    30    32    1
    28    30    33    1
    29    27    28   ar
    30    28    29   ar
    31     4     5    1
    32     5     6    1
    33    17    12   ar
    34     6     1    1
    35    22    18   ar
    36    29    24   ar
@<TRIPOS>MOLECULE
*****
 33 36 0 0 0
SMALL
GASTEIGER

@<TRIPOS>ATOM
      1 C         142.2262  140.1867  167.1269 C.3     1  UNL1        0.0782
      2 C         142.6994  141.4973  166.5717 C.3     1  UNL1        0.0372
      3 C         143.6788  141.5208  165.4358 C.3     1  UNL1        0.0741
      4 N         144.1849  140.2337  164.8551 N.3     1  UNL1       -0.2688
      5 C         143.7117  138.9230  165.4103 C.3     1  UNL1        0.0741
      6 C         142.7324  138.8995  166.5463 C.3     1  UNL1        0.0372
      7 C         141.7226  140.3842  169.6680 C.3     1  UNL1        0.1148
      8 N         141.2468  140.1631  168.2628 N.am    1  UNL1       -0.2790
      9 C         139.7916  139.9185  167.9934 C.2     1  UNL1        0.2301
     10 O         138.8122  139.8950  169.1294 O.2     1  UNL1       -0.2745
     11 C         139.3158  139.6974  166.5882 C.3     1  UNL1        0.1116
     12 C         139.4665  140.7845  165.5656 C.ar    1  UNL1       -0.0130
     13 C         139.7678  140.4350  164.1384 C.ar    1  UNL1       -0.0022
     14 C         139.9184  141.5220  163.1158 C.ar    1  UNL1        0.0190
     15 C         139.7678  142.9585  163.5205 C.ar    1  UNL1        0.0862
     16 C         139.4665  143.3080  164.9477 C.ar    1  UNL1        0.0190
     17 C         139.3158  142.2210  165.9702 C.ar    1  UNL1       -0.0022
     18 N         139.9185  144.0455  162.4978 N.ar    1  UNL1       -0.1886
     19 C         141.1249  144.2879  161.6400 C.ar    1  UNL1        0.2258
     20 N         140.8413  145.4731  160.7655 N.ar    1  UNL1       -0.1045
     21 N         139.4595  145.9633  161.0829 N.ar    1  UNL1       -0.0222
     22 N         138.8893  145.0809  162.1535 N.ar    1  UNL1       -0.0385
     23 C         145.1643  140.2573  163.7192 C.3     1  UNL1        0.1007
     24 C         144.7455  140.7840  162.3786 C.ar    1  UNL1        0.0130
     25 C         144.9780  142.2249  162.0330 C.ar    1  UNL1        0.0001
     26 C         144.5592  142.7517  160.6924 C.ar    1  UNL1        0.0228
     27 C         143.9079  141.8374  159.6974 C.ar    1  UNL1        0.1526
     28 N         143.6754  140.3963  160.0431 N.ar    1  UNL1       -0.2401
     29 C         144.0942  139.8697  161.3837 C.ar    1  UNL1        0.0958
     30 C         143.4891  142.3641  158.3569 C.3     1  UNL1        0.4348
     31 F         143.0703  142.8907  157.0163 F       1  UNL1       -0.1644
     32 F         143.1498  143.6848  158.9818 F       1  UNL1       -0.1644
     33 F         143.8285  141.0434  157.7320 F       1  UNL1       -0.1644
@<TRIPOS>BOND
     1     7     8    1
     2     8     9   am
     3     9    10    2
     4     9    11    1
     5    11    12    1
     6    12    13   ar
     7    13    14   ar
     8    14    15   ar
     9    15    18    1
    10    18    19   ar
    11    19    20   ar
    12    20    21   ar
    13    21    22   ar
    14    15    16   ar
    15    16    17   ar
    16     8     1    1
    17     1     2    1
    18     2     3    1
    19     3     4    1
    20     4    23    1
    21    23    24    1
    22    24    25   ar
    23    25    26   ar
    24    26    27   ar
    25    27    30    1
    26    30    31    1
    27    30    32    1
    28    30    33    1
    29    27    28   ar
    30    28    29   ar
    31     4     5    1
    32     5     6    1
    33    17    12   ar
    34     6     1    1
    35    22    18   ar
    36    29    24   ar
@<TRIPOS>MOLECULE
*****
 33 36 0 0 0
SMALL
GASTEIGER

@<TRIPOS>ATOM
      1 C         142.8086  140.6916  167.1305 C.3     1  UNL1        0.0782
      2 C         143.2719  141.6127  166.0411 C.3     1  UNL1        0.0372
      3 C         143.7845  141.0483  164.7493 C.3     1  UNL1        0.0741
      4 N         143.8338  139.5629  164.5469 N.3     1  UNL1       -0.2688
      5 C         143.3706  138.6417  165.6364 C.3     1  UNL1        0.0741
      6 C         142.8580  139.2061  166.9282 C.3     1  UNL1        0.0372
      7 C         143.2592  141.6603  169.4987 C.3     1  UNL1        0.1148
      8 N         142.2961  141.2560  168.4223 N.am    1  UNL1       -0.2790
      9 C         140.8202  141.4160  168.6377 C.2     1  UNL1        0.2301
     10 O         140.3076  141.9803  169.9295 O.2     1  UNL1       -0.2745
     11 C         139.8570  141.0116  167.5613 C.3     1  UNL1        0.1116
     12 C         139.8283  141.7590  166.2610 C.ar    1  UNL1       -0.0130
     13 C         139.7672  141.0068  164.9647 C.ar    1  UNL1       -0.0022
     14 C         139.7385  141.7542  163.6646 C.ar    1  UNL1        0.0190
     15 C         139.7710  143.2538  163.6606 C.ar    1  UNL1        0.0862
     16 C         139.8321  144.0061  164.9569 C.ar    1  UNL1        0.0190
     17 C         139.8608  143.2587  166.2571 C.ar    1  UNL1       -0.0022
     18 N         139.7423  144.0012  162.3604 N.ar    1  UNL1       -0.1886
     19 C         139.6025  143.3926  160.9965 C.ar    1  UNL1        0.2258
     20 N         139.6222  144.5036  159.9889 N.ar    1  UNL1       -0.1045
     21 N         139.7741  145.7989  160.7301 N.ar    1  UNL1       -0.0222
     22 N         139.8483  145.4884  162.1957 N.ar    1  UNL1       -0.0385
     23 C         144.3464  138.9985  163.2551 C.3     1  UNL1        0.1007
     24 C         143.4236  138.8530  162.0817 C.ar    1  UNL1        0.0130
     25 C         141.9506  138.6764  162.3033 C.ar    1  UNL1        0.0001
     26 C         141.0277  138.5308  161.1298 C.ar    1  UNL1        0.0228
     27 C         141.5778  138.5620  159.7346 C.ar    1  UNL1        0.1526
     28 N         143.0508  138.7386  159.5130 N.ar    1  UNL1       -0.2401
     29 C         143.9737  138.8841  160.6865 C.ar    1  UNL1        0.0958
     30 C         140.6550  138.4164  158.5611 C.3     1  UNL1        0.4348
     31 F         139.7321  138.2709  157.3876 F       1  UNL1       -0.1644
     32 F         141.8360  138.3757  157.6374 F       1  UNL1       -0.1644
     33 F         139.4739  138.4572  159.4849 F       1  UNL1       -0.1644
@<TRIPOS>BOND
     1     7     8    1
     2     8     9   am
     3     9    10    2
     4     9    11    1
     5    11    12    1
     6    12    13   ar
     7    13    14   ar
     8    14    15   ar
     9    15    18    1
    10    18    19   ar
    11    19    20   ar
    12    20    21   ar
    13    21    22   ar
    14    15    16   ar
    15    16    17   ar
    16     8     1    1
    17     1     2    1
    18     2     3    1
    19     3     4    1
    20     4    23    1
    21    23    24    1
    22    24    25   ar
    23    25    26   ar
    24    26    27   ar
    25    27    30    1
    26    30    31    1
    27    30    32    1
    28    30    33    1
    29    27    28   ar
    30    28    29   ar
    31     4     5    1
    32     5     6    1
    33    17    12   ar
    34     6     1    1
    35    22    18   ar
    36    29    24   ar
