@<TRIPOS>MOLECULE
*****
 28 30 0 0 0
SMALL
GASTEIGER

@<TRIPOS>ATOM
      1 C         140.5171  141.8940  166.0289 C.ar    1  UNL1        0.0858
      2 C         141.2906  142.4193  167.2019 C.ar    1  UNL1        0.0399
      3 C         141.1081  141.8030  168.5573 C.ar    1  UNL1        0.1032
      4 N         141.8816  142.3282  169.7302 N.ar    1  UNL1       -0.2405
      5 C         141.6991  141.7120  171.0855 C.ar    1  UNL1        0.1195
      6 C         140.7432  140.5705  171.2679 C.ar    1  UNL1        0.1196
      7 N         139.9698  140.0453  170.0949 N.ar    1  UNL1       -0.2379
      8 C         140.1522  140.6615  168.7396 C.ar    1  UNL1        0.1302
      9 C         139.3788  140.1363  167.5666 C.ar    1  UNL1        0.1477
     10 N         139.5612  140.7526  166.2113 N.ar    1  UNL1       -0.2292
     11 C         141.0643  143.7427  161.9629 C.ar    1  UNL1        0.1318
     12 C         141.9353  144.1731  163.1058 C.ar    1  UNL1        0.0344
     13 C         141.7529  143.5569  164.4611 C.ar    1  UNL1        0.0059
     14 C         140.6996  142.5103  164.6735 C.ar    1  UNL1        0.0370
     15 C         139.8286  142.0799  163.5306 C.ar    1  UNL1        0.1018
     16 N         140.0110  142.6961  162.1753 N.ar    1  UNL1       -0.2291
     17 C         142.2486  143.7837  159.6507 C.3     1  UNL1        0.1136
     18 N         141.2468  144.3590  160.6075 N.pl3   1  UNL1       -0.2897
     19 C         140.4274  145.5505  160.2089 C.3     1  UNL1        0.1136
     20 N         138.4228  138.9948  167.7489 N.pl3   1  UNL1       -0.3169
     21 H         138.2079  138.6726  168.6540 H       1  UNL1        0.1482
     22 C         137.7945  138.3443  166.5523 C.3     1  UNL1        0.0883
     23 C         138.5757  137.3544  165.7401 C.3     1  UNL1        0.0226
     24 C         139.1149  137.7461  164.3962 C.3     1  UNL1        0.0186
     25 C         140.5938  137.7247  164.1462 C.3     1  UNL1        0.0652
     26 N         141.1598  136.8467  163.0698 N.3     1  UNL1       -0.3211
     27 H         141.0145  135.8681  163.3179 H       1  UNL1        0.1189
     28 H         142.1589  137.0283  162.9734 H       1  UNL1        0.1189
@<TRIPOS>BOND
     1    17    18    1
     2    18    19    1
     3    18    11    1
     4    11    12   ar
     5    12    13   ar
     6    13    14   ar
     7    14     1    1
     8     1     2   ar
     9     2     3   ar
    10     3     4   ar
    11     4     5   ar
    12     5     6   ar
    13     6     7   ar
    14     7     8   ar
    15     8     9   ar
    16     9    20    1
    17    20    22    1
    18    22    23    1
    19    23    24    1
    20    24    25    1
    21    25    26    1
    22     9    10   ar
    23    14    15   ar
    24    15    16   ar
    25    16    11   ar
    26    10     1   ar
    27     8     3   ar
    28    20    21    1
    29    26    27    1
    30    26    28    1
@<TRIPOS>MOLECULE
*****
 28 30 0 0 0
SMALL
GASTEIGER

@<TRIPOS>ATOM
      1 C         142.4653  142.3036  164.4189 C.ar    1  UNL1        0.0858
      2 C         143.1913  141.5786  163.3247 C.ar    1  UNL1        0.0399
      3 C         143.2233  142.1510  161.9385 C.ar    1  UNL1        0.1032
      4 N         143.9493  141.4260  160.8443 N.ar    1  UNL1       -0.2405
      5 C         143.9813  141.9984  159.4582 C.ar    1  UNL1        0.1195
      6 C         143.2873  143.2958  159.1663 C.ar    1  UNL1        0.1196
      7 N         142.5613  144.0208  160.2605 N.ar    1  UNL1       -0.2379
      8 C         142.5293  143.4484  161.6466 C.ar    1  UNL1        0.1302
      9 C         141.8033  144.1734  162.7409 C.ar    1  UNL1        0.1477
     10 N         141.7713  143.6010  164.1270 N.ar    1  UNL1       -0.2292
     11 C         142.3692  140.5865  168.5772 C.ar    1  UNL1        0.1318
     12 C         143.0626  141.8916  168.3206 C.ar    1  UNL1        0.0344
     13 C         143.0946  142.4640  166.9345 C.ar    1  UNL1        0.0059
     14 C         142.4333  141.7313  165.8050 C.ar    1  UNL1        0.0370
     15 C         141.7400  140.4261  166.0617 C.ar    1  UNL1        0.1018
     16 N         141.7079  139.8537  167.4478 N.ar    1  UNL1       -0.2291
     17 C         141.9166  140.8721  171.1196 C.3     1  UNL1        0.1136
     18 N         142.3372  140.0141  169.9634 N.pl3   1  UNL1       -0.2897
     19 C         142.7259  138.5837  170.1933 C.3     1  UNL1        0.1136
     20 N         141.1093  145.4708  162.4490 N.pl3   1  UNL1       -0.3169
     21 H         141.6323  146.3006  162.3646 H       1  UNL1        0.1482
     22 C         139.6187  145.5038  162.2856 C.3     1  UNL1        0.0883
     23 C         138.8419  144.2218  162.2284 C.3     1  UNL1        0.0226
     24 C         137.8206  143.9160  163.2836 C.3     1  UNL1        0.0186
     25 C         137.6921  142.5216  163.8212 C.3     1  UNL1        0.0652
     26 N         136.8372  141.5178  163.1060 N.3     1  UNL1       -0.3211
     27 H         135.8607  141.8089  163.1515 H       1  UNL1        0.1189
     28 H         136.9410  140.6052  163.5496 H       1  UNL1        0.1189
@<TRIPOS>BOND
     1    17    18    1
     2    18    19    1
     3    18    11    1
     4    11    12   ar
     5    12    13   ar
     6    13    14   ar
     7    14     1    1
     8     1     2   ar
     9     2     3   ar
    10     3     4   ar
    11     4     5   ar
    12     5     6   ar
    13     6     7   ar
    14     7     8   ar
    15     8     9   ar
    16     9    20    1
    17    20    22    1
    18    22    23    1
    19    23    24    1
    20    24    25    1
    21    25    26    1
    22     9    10   ar
    23    14    15   ar
    24    15    16   ar
    25    16    11   ar
    26    10     1   ar
    27     8     3   ar
    28    20    21    1
    29    26    27    1
    30    26    28    1
@<TRIPOS>MOLECULE
*****
 28 30 0 0 0
SMALL
GASTEIGER

@<TRIPOS>ATOM
      1 C         139.3529  141.9877  164.5907 C.ar    1  UNL1        0.0858
      2 C         139.2009  140.8460  163.6298 C.ar    1  UNL1        0.0399
      3 C         138.8718  141.1151  162.1912 C.ar    1  UNL1        0.1032
      4 N         138.7198  139.9734  161.2304 N.ar    1  UNL1       -0.2405
      5 C         138.3907  140.2426  159.7919 C.ar    1  UNL1        0.1195
      6 C         138.2136  141.6535  159.3143 C.ar    1  UNL1        0.1196
      7 N         138.3656  142.7952  160.2752 N.ar    1  UNL1       -0.2379
      8 C         138.6947  142.5260  161.7137 C.ar    1  UNL1        0.1302
      9 C         138.8467  143.6677  162.6747 C.ar    1  UNL1        0.1477
     10 N         139.1757  143.3986  164.1131 N.ar    1  UNL1       -0.2292
     11 C         140.3401  141.1803  168.9061 C.ar    1  UNL1        0.1318
     12 C         140.6491  142.5188  168.3038 C.ar    1  UNL1        0.0344
     13 C         140.3200  142.7880  166.8654 C.ar    1  UNL1        0.0059
     14 C         139.6820  141.7186  166.0292 C.ar    1  UNL1        0.0370
     15 C         139.3730  140.3800  166.6315 C.ar    1  UNL1        0.1018
     16 N         139.7020  140.1108  168.0700 N.ar    1  UNL1       -0.2291
     17 C         141.6382  141.7965  171.0707 C.3     1  UNL1        0.1136
     18 N         140.6692  140.9111  170.3447 N.pl3   1  UNL1       -0.2897
     19 C         140.0293  139.7566  171.0571 C.3     1  UNL1        0.1136
     20 N         138.6695  145.0786  162.1971 N.pl3   1  UNL1       -0.3169
     21 H         137.7681  145.4709  162.1443 H       1  UNL1        0.1482
     22 C         139.8658  145.8917  161.7999 C.3     1  UNL1        0.0883
     23 C         141.2476  145.3651  162.0513 C.3     1  UNL1        0.0226
     24 C         141.8362  145.4311  163.4295 C.3     1  UNL1        0.0186
     25 C         143.2941  145.1458  163.6368 C.3     1  UNL1        0.0652
     26 N         144.1339  144.6622  162.4920 N.3     1  UNL1       -0.3211
     27 H         143.8177  143.7355  162.2060 H       1  UNL1        0.1189
     28 H         145.1102  144.6133  162.7833 H       1  UNL1        0.1189
@<TRIPOS>BOND
     1    17    18    1
     2    18    19    1
     3    18    11    1
     4    11    12   ar
     5    12    13   ar
     6    13    14   ar
     7    14     1    1
     8     1     2   ar
     9     2     3   ar
    10     3     4   ar
    11     4     5   ar
    12     5     6   ar
    13     6     7   ar
    14     7     8   ar
    15     8     9   ar
    16     9    20    1
    17    20    22    1
    18    22    23    1
    19    23    24    1
    20    24    25    1
    21    25    26    1
    22     9    10   ar
    23    14    15   ar
    24    15    16   ar
    25    16    11   ar
    26    10     1   ar
    27     8     3   ar
    28    20    21    1
    29    26    27    1
    30    26    28    1
@<TRIPOS>MOLECULE
*****
 28 30 0 0 0
SMALL
GASTEIGER

@<TRIPOS>ATOM
      1 C         141.0221  142.5061  164.3536 C.ar    1  UNL1        0.0858
      2 C         141.1732  143.7770  163.5714 C.ar    1  UNL1        0.0399
      3 C         140.8599  143.7967  162.1046 C.ar    1  UNL1        0.1032
      4 N         141.0110  145.0677  161.3224 N.ar    1  UNL1       -0.2405
      5 C         140.6978  145.0873  159.8557 C.ar    1  UNL1        0.1195
      6 C         140.2334  143.8360  159.1711 C.ar    1  UNL1        0.1196
      7 N         140.0823  142.5651  159.9532 N.ar    1  UNL1       -0.2379
      8 C         140.3956  142.5455  161.4200 C.ar    1  UNL1        0.1302
      9 C         140.2445  141.2745  162.2023 C.ar    1  UNL1        0.1477
     10 N         140.5578  141.2548  163.6690 N.ar    1  UNL1       -0.2292
     11 C         141.9620  142.4470  168.7539 C.ar    1  UNL1        0.1318
     12 C         140.5738  142.7719  168.2878 C.ar    1  UNL1        0.0344
     13 C         140.2605  142.7916  166.8211 C.ar    1  UNL1        0.0059
     14 C         141.3354  142.4864  165.8204 C.ar    1  UNL1        0.0370
     15 C         142.7237  142.1615  166.2865 C.ar    1  UNL1        0.1018
     16 N         143.0370  142.1418  167.7533 N.ar    1  UNL1       -0.2291
     17 C         143.2070  143.4487  170.8025 C.3     1  UNL1        0.1136
     18 N         142.2753  142.4273  170.2208 N.pl3   1  UNL1       -0.2897
     19 C         141.6568  141.3861  171.1059 C.3     1  UNL1        0.1136
     20 N         139.7802  140.0232  161.5177 N.pl3   1  UNL1       -0.3169
     21 H         140.2820  139.6674  160.7490 H       1  UNL1        0.1482
     22 C         138.5513  139.3140  162.0042 C.3     1  UNL1        0.0883
     23 C         138.6578  137.9255  162.5616 C.3     1  UNL1        0.0226
     24 C         139.5572  137.6537  163.7310 C.3     1  UNL1        0.0186
     25 C         140.9835  137.2499  163.5022 C.3     1  UNL1        0.0652
     26 N         141.5603  137.2855  162.1180 N.3     1  UNL1       -0.3211
     27 H         141.0910  136.5915  161.5361 H       1  UNL1        0.1189
     28 H         142.5576  137.0758  162.1597 H       1  UNL1        0.1189
@<TRIPOS>BOND
     1    17    18    1
     2    18    19    1
     3    18    11    1
     4    11    12   ar
     5    12    13   ar
     6    13    14   ar
     7    14     1    1
     8     1     2   ar
     9     2     3   ar
    10     3     4   ar
    11     4     5   ar
    12     5     6   ar
    13     6     7   ar
    14     7     8   ar
    15     8     9   ar
    16     9    20    1
    17    20    22    1
    18    22    23    1
    19    23    24    1
    20    24    25    1
    21    25    26    1
    22     9    10   ar
    23    14    15   ar
    24    15    16   ar
    25    16    11   ar
    26    10     1   ar
    27     8     3   ar
    28    20    21    1
    29    26    27    1
    30    26    28    1
@<TRIPOS>MOLECULE
*****
 28 30 0 0 0
SMALL
GASTEIGER

@<TRIPOS>ATOM
      1 C         142.1666  140.7846  161.3915 C.ar    1  UNL1        0.0858
      2 C         141.4335  139.4915  161.5925 C.ar    1  UNL1        0.0399
      3 C         140.5271  139.3192  162.7752 C.ar    1  UNL1        0.1032
      4 N         139.7939  138.0261  162.9761 N.ar    1  UNL1       -0.2405
      5 C         138.8875  137.8539  164.1588 C.ar    1  UNL1        0.1195
      6 C         138.7143  138.9747  165.1405 C.ar    1  UNL1        0.1196
      7 N         139.4474  140.2678  164.9396 N.ar    1  UNL1       -0.2379
      8 C         140.3538  140.4400  163.7569 C.ar    1  UNL1        0.1302
      9 C         141.0870  141.7332  163.5559 C.ar    1  UNL1        0.1477
     10 N         141.9934  141.9054  162.3732 N.ar    1  UNL1       -0.2292
     11 C         144.8859  141.3014  157.8435 C.ar    1  UNL1        0.1318
     12 C         144.6337  142.4543  158.7694 C.ar    1  UNL1        0.0344
     13 C         143.7273  142.2821  159.9520 C.ar    1  UNL1        0.0059
     14 C         143.0731  140.9569  160.2088 C.ar    1  UNL1        0.0370
     15 C         143.3253  139.8040  159.2829 C.ar    1  UNL1        0.1018
     16 N         144.2317  139.9763  158.1003 N.ar    1  UNL1       -0.2291
     17 C         146.8808  142.5052  156.6941 C.3     1  UNL1        0.1136
     18 N         145.7923  141.4737  156.6608 N.pl3   1  UNL1       -0.2897
     19 C         145.6102  140.6145  155.4448 C.3     1  UNL1        0.1136
     20 N         140.9137  142.8540  164.5376 N.pl3   1  UNL1       -0.3169
     21 H         141.1421  142.7178  165.4855 H       1  UNL1        0.1482
     22 C         140.3924  144.1822  164.0751 C.3     1  UNL1        0.0883
     23 C         138.9522  144.5401  164.2935 C.3     1  UNL1        0.0226
     24 C         137.9109  143.4615  164.3446 C.3     1  UNL1        0.0186
     25 C         137.5249  142.7317  163.0922 C.3     1  UNL1        0.0652
     26 N         136.8480  141.3961  163.1809 N.3     1  UNL1       -0.3211
     27 H         137.4914  140.7150  163.5840 H       1  UNL1        0.1189
     28 H         136.5721  141.0921  162.2472 H       1  UNL1        0.1189
@<TRIPOS>BOND
     1    17    18    1
     2    18    19    1
     3    18    11    1
     4    11    12   ar
     5    12    13   ar
     6    13    14   ar
     7    14     1    1
     8     1     2   ar
     9     2     3   ar
    10     3     4   ar
    11     4     5   ar
    12     5     6   ar
    13     6     7   ar
    14     7     8   ar
    15     8     9   ar
    16     9    20    1
    17    20    22    1
    18    22    23    1
    19    23    24    1
    20    24    25    1
    21    25    26    1
    22     9    10   ar
    23    14    15   ar
    24    15    16   ar
    25    16    11   ar
    26    10     1   ar
    27     8     3   ar
    28    20    21    1
    29    26    27    1
    30    26    28    1
@<TRIPOS>MOLECULE
*****
 28 30 0 0 0
SMALL
GASTEIGER

@<TRIPOS>ATOM
      1 C         141.8928  142.9592  164.3734 C.ar    1  UNL1        0.0858
      2 C         140.9878  144.0325  163.8452 C.ar    1  UNL1        0.0399
      3 C         141.0555  144.4263  162.3993 C.ar    1  UNL1        0.1032
      4 N         140.1505  145.4996  161.8712 N.ar    1  UNL1       -0.2405
      5 C         140.2182  145.8933  160.4254 C.ar    1  UNL1        0.1195
      6 C         141.1909  145.2137  159.5078 C.ar    1  UNL1        0.1196
      7 N         142.0959  144.1404  160.0359 N.ar    1  UNL1       -0.2379
      8 C         142.0282  143.7467  161.4817 C.ar    1  UNL1        0.1302
      9 C         142.9332  142.6734  162.0100 C.ar    1  UNL1        0.1477
     10 N         142.8655  142.2797  163.4558 N.ar    1  UNL1       -0.2292
     11 C         141.6898  141.7780  168.7108 C.ar    1  UNL1        0.1318
     12 C         140.5185  142.4541  168.0620 C.ar    1  UNL1        0.0344
     13 C         140.5861  142.8478  166.6162 C.ar    1  UNL1        0.0059
     14 C         141.8251  142.5655  165.8192 C.ar    1  UNL1        0.0370
     15 C         142.9964  141.8894  166.4680 C.ar    1  UNL1        0.1018
     16 N         142.9288  141.4957  167.9138 N.ar    1  UNL1       -0.2291
     17 C         142.5643  140.3498  170.6972 C.3     1  UNL1        0.1136
     18 N         141.6221  141.3842  170.1567 N.pl3   1  UNL1       -0.2897
     19 C         140.6122  142.0250  171.0620 C.3     1  UNL1        0.1136
     20 N         143.9059  141.9938  161.0923 N.pl3   1  UNL1       -0.3169
     21 H         144.7920  142.3917  160.9324 H       1  UNL1        0.1482
     22 C         143.5284  140.7080  160.4185 C.3     1  UNL1        0.0883
     23 C         144.1312  139.4142  160.8798 C.3     1  UNL1        0.0226
     24 C         143.6298  138.7575  162.1318 C.3     1  UNL1        0.0186
     25 C         144.2442  139.1007  163.4565 C.3     1  UNL1        0.0652
     26 N         145.2470  140.2119  163.5527 N.3     1  UNL1       -0.3211
     27 H         146.0882  139.9566  163.0355 H       1  UNL1        0.1189
     28 H         145.4851  140.3712  164.5317 H       1  UNL1        0.1189
@<TRIPOS>BOND
     1    17    18    1
     2    18    19    1
     3    18    11    1
     4    11    12   ar
     5    12    13   ar
     6    13    14   ar
     7    14     1    1
     8     1     2   ar
     9     2     3   ar
    10     3     4   ar
    11     4     5   ar
    12     5     6   ar
    13     6     7   ar
    14     7     8   ar
    15     8     9   ar
    16     9    20    1
    17    20    22    1
    18    22    23    1
    19    23    24    1
    20    24    25    1
    21    25    26    1
    22     9    10   ar
    23    14    15   ar
    24    15    16   ar
    25    16    11   ar
    26    10     1   ar
    27     8     3   ar
    28    20    21    1
    29    26    27    1
    30    26    28    1
@<TRIPOS>MOLECULE
*****
 28 30 0 0 0
SMALL
GASTEIGER

@<TRIPOS>ATOM
      1 C         138.2681  141.1082  161.0603 C.ar    1  UNL1        0.0858
      2 C         138.6591  139.7207  161.4748 C.ar    1  UNL1        0.0399
      3 C         138.5932  139.3229  162.9196 C.ar    1  UNL1        0.1032
      4 N         138.9842  137.9354  163.3341 N.ar    1  UNL1       -0.2405
      5 C         138.9182  137.5376  164.7788 C.ar    1  UNL1        0.1195
      6 C         138.4613  138.5274  165.8091 C.ar    1  UNL1        0.1196
      7 N         138.0702  139.9149  165.3947 N.ar    1  UNL1       -0.2379
      8 C         138.1362  140.3127  163.9499 C.ar    1  UNL1        0.1302
      9 C         137.7452  141.7003  163.5354 C.ar    1  UNL1        0.1477
     10 N         137.8111  142.0980  162.0906 N.ar    1  UNL1       -0.2292
     11 C         138.4660  142.3018  156.7260 C.ar    1  UNL1        0.1318
     12 C         137.9053  140.9648  157.1109 C.ar    1  UNL1        0.0344
     13 C         137.8394  140.5669  158.5557 C.ar    1  UNL1        0.0059
     14 C         138.3340  141.5061  159.6155 C.ar    1  UNL1        0.0370
     15 C         138.8947  142.8431  159.2306 C.ar    1  UNL1        0.1018
     16 N         138.9606  143.2409  157.7858 N.ar    1  UNL1       -0.2291
     17 C         139.2603  141.8329  154.2971 C.3     1  UNL1        0.1136
     18 N         138.5319  142.6996  155.2812 N.pl3   1  UNL1       -0.2897
     19 C         137.8695  143.9641  154.8205 C.3     1  UNL1        0.1136
     20 N         137.2882  142.6900  164.5657 N.pl3   1  UNL1       -0.3169
     21 H         136.7615  142.3867  165.3402 H       1  UNL1        0.1482
     22 C         137.6336  144.1420  164.4160 C.3     1  UNL1        0.0883
     23 C         138.9208  144.6686  164.9780 C.3     1  UNL1        0.0226
     24 C         140.1251  144.8044  164.0941 C.3     1  UNL1        0.0186
     25 C         139.9572  145.1657  162.6480 C.3     1  UNL1        0.0652
     26 N         140.2085  146.5725  162.1923 N.3     1  UNL1       -0.3211
     27 H         139.5122  147.1931  162.6052 H       1  UNL1        0.1189
     28 H         140.1433  146.6172  161.1754 H       1  UNL1        0.1189
@<TRIPOS>BOND
     1    17    18    1
     2    18    19    1
     3    18    11    1
     4    11    12   ar
     5    12    13   ar
     6    13    14   ar
     7    14     1    1
     8     1     2   ar
     9     2     3   ar
    10     3     4   ar
    11     4     5   ar
    12     5     6   ar
    13     6     7   ar
    14     7     8   ar
    15     8     9   ar
    16     9    20    1
    17    20    22    1
    18    22    23    1
    19    23    24    1
    20    24    25    1
    21    25    26    1
    22     9    10   ar
    23    14    15   ar
    24    15    16   ar
    25    16    11   ar
    26    10     1   ar
    27     8     3   ar
    28    20    21    1
    29    26    27    1
    30    26    28    1
@<TRIPOS>MOLECULE
*****
 28 30 0 0 0
SMALL
GASTEIGER

@<TRIPOS>ATOM
      1 C         140.0119  138.9741  159.9894 C.ar    1  UNL1        0.0858
      2 C         139.6157  140.4206  160.0110 C.ar    1  UNL1        0.0399
      3 C         138.9054  140.9860  161.2051 C.ar    1  UNL1        0.1032
      4 N         138.5091  142.4326  161.2266 N.ar    1  UNL1       -0.2405
      5 C         137.7989  142.9979  162.4207 C.ar    1  UNL1        0.1195
      6 C         137.4849  142.1167  163.5933 C.ar    1  UNL1        0.1196
      7 N         137.8812  140.6702  163.5718 N.ar    1  UNL1       -0.2379
      8 C         138.5914  140.1049  162.3777 C.ar    1  UNL1        0.1302
      9 C         138.9877  138.6583  162.3561 C.ar    1  UNL1        0.1477
     10 N         139.6979  138.0929  161.1620 N.ar    1  UNL1       -0.2292
     11 C         142.1427  137.2779  156.4072 C.ar    1  UNL1        0.1318
     12 C         140.6449  137.3574  156.4208 C.ar    1  UNL1        0.0344
     13 C         139.9346  137.9228  157.6148 C.ar    1  UNL1        0.0059
     14 C         140.7222  138.4087  158.7953 C.ar    1  UNL1        0.0370
     15 C         142.2200  138.3292  158.7817 C.ar    1  UNL1        0.1018
     16 N         142.9303  137.7638  157.5877 N.ar    1  UNL1       -0.2291
     17 C         144.1572  135.9924  155.3876 C.3     1  UNL1        0.1136
     18 N         142.8530  136.7125  155.2130 N.pl3   1  UNL1       -0.2897
     19 C         142.2590  136.8672  153.8444 C.3     1  UNL1        0.1136
     20 N         138.6738  137.7771  163.5287 N.pl3   1  UNL1       -0.3169
     21 H         137.8687  137.2105  163.5171 H       1  UNL1        0.1482
     22 C         139.5863  137.7592  164.7190 C.3     1  UNL1        0.0883
     23 C         140.9807  137.2223  164.5870 C.3     1  UNL1        0.0226
     24 C         142.1447  138.1662  164.5207 C.3     1  UNL1        0.0186
     25 C         142.7891  138.4707  163.2009 C.3     1  UNL1        0.0652
     26 N         142.6409  137.5137  162.0554 N.3     1  UNL1       -0.3211
     27 H         143.1157  136.6392  162.2794 H       1  UNL1        0.1189
     28 H         143.0553  137.9205  161.2168 H       1  UNL1        0.1189
@<TRIPOS>BOND
     1    17    18    1
     2    18    19    1
     3    18    11    1
     4    11    12   ar
     5    12    13   ar
     6    13    14   ar
     7    14     1    1
     8     1     2   ar
     9     2     3   ar
    10     3     4   ar
    11     4     5   ar
    12     5     6   ar
    13     6     7   ar
    14     7     8   ar
    15     8     9   ar
    16     9    20    1
    17    20    22    1
    18    22    23    1
    19    23    24    1
    20    24    25    1
    21    25    26    1
    22     9    10   ar
    23    14    15   ar
    24    15    16   ar
    25    16    11   ar
    26    10     1   ar
    27     8     3   ar
    28    20    21    1
    29    26    27    1
    30    26    28    1
@<TRIPOS>MOLECULE
*****
 28 30 0 0 0
SMALL
GASTEIGER

@<TRIPOS>ATOM
      1 C         141.4781  141.5226  160.2251 C.ar    1  UNL1        0.0858
      2 C         140.0652  141.5569  160.7273 C.ar    1  UNL1        0.0399
      3 C         139.6185  142.6644  161.6352 C.ar    1  UNL1        0.1032
      4 N         138.2056  142.6987  162.1374 N.ar    1  UNL1       -0.2405
      5 C         137.7590  143.8061  163.0452 C.ar    1  UNL1        0.1195
      6 C         138.7254  144.8793  163.4507 C.ar    1  UNL1        0.1196
      7 N         140.1384  144.8450  162.9485 N.ar    1  UNL1       -0.2379
      8 C         140.5849  143.7375  162.0407 C.ar    1  UNL1        0.1302
      9 C         141.9980  143.7032  161.5384 C.ar    1  UNL1        0.1477
     10 N         142.4445  142.5957  160.6306 N.ar    1  UNL1       -0.2292
     11 C         142.8181  138.2003  157.5017 C.ar    1  UNL1        0.1318
     12 C         141.3911  138.2654  157.9594 C.ar    1  UNL1        0.0344
     13 C         140.9444  139.3728  158.8672 C.ar    1  UNL1        0.0059
     14 C         141.9248  140.4151  159.3172 C.ar    1  UNL1        0.0370
     15 C         143.3517  140.3500  158.8595 C.ar    1  UNL1        0.1018
     16 N         143.7984  139.2426  157.9517 N.ar    1  UNL1       -0.2291
     17 C         142.9175  135.6703  156.9192 C.3     1  UNL1        0.1136
     18 N         143.2647  137.0928  156.5938 N.pl3   1  UNL1       -0.2897
     19 C         144.0585  137.4080  155.3607 C.3     1  UNL1        0.1136
     20 N         142.9644  144.7763  161.9439 N.pl3   1  UNL1       -0.3169
     21 H         142.8550  145.6925  161.6007 H       1  UNL1        0.1482
     22 C         144.0973  144.4535  162.8724 C.3     1  UNL1        0.0883
     23 C         143.8861  143.4987  164.0098 C.3     1  UNL1        0.0226
     24 C         144.9431  142.4895  164.3480 C.3     1  UNL1        0.0186
     25 C         145.5925  141.6895  163.2579 C.3     1  UNL1        0.0652
     26 N         144.7500  141.0427  162.1987 N.3     1  UNL1       -0.3211
     27 H         144.1708  140.3171  162.6210 H       1  UNL1        0.1189
     28 H         145.3546  140.6261  161.4907 H       1  UNL1        0.1189
@<TRIPOS>BOND
     1    17    18    1
     2    18    19    1
     3    18    11    1
     4    11    12   ar
     5    12    13   ar
     6    13    14   ar
     7    14     1    1
     8     1     2   ar
     9     2     3   ar
    10     3     4   ar
    11     4     5   ar
    12     5     6   ar
    13     6     7   ar
    14     7     8   ar
    15     8     9   ar
    16     9    20    1
    17    20    22    1
    18    22    23    1
    19    23    24    1
    20    24    25    1
    21    25    26    1
    22     9    10   ar
    23    14    15   ar
    24    15    16   ar
    25    16    11   ar
    26    10     1   ar
    27     8     3   ar
    28    20    21    1
    29    26    27    1
    30    26    28    1
