@<TRIPOS>MOLECULE
*****
 25 26 0 0 0
SMALL
GASTEIGER

@<TRIPOS>ATOM
      1 C         138.8229  139.3053  167.3344 C.3     1  UNL1        0.0572
      2 C         139.5873  140.3571  168.0823 C.ar    1  UNL1        0.0326
      3 C         140.6585  141.1432  167.3861 C.ar    1  UNL1        0.1006
      4 N         141.4229  142.1950  168.1340 N.ar    1  UNL1       -0.2127
      5 C         141.1162  142.4606  169.5781 C.ar    1  UNL1        0.2148
      6 N         141.8806  143.5124  170.3260 N.pl3   1  UNL1       -0.3274
      7 N         140.0450  141.6745  170.2743 N.ar    1  UNL1       -0.1998
      8 C         139.2806  140.6227  169.5263 C.ar    1  UNL1        0.1260
      9 N         138.2094  139.8366  170.2225 N.pl3   1  UNL1       -0.3427
     10 H         142.5836  144.0284  169.8691 H       1  UNL1        0.1452
     11 H         141.6793  143.6868  171.2738 H       1  UNL1        0.1452
     12 H         138.0081  140.0109  171.1703 H       1  UNL1        0.1437
     13 H         137.7077  139.1462  169.7317 H       1  UNL1        0.1437
     14 C         137.9279  140.4174  163.6314 C.ar    1  UNL1        0.1751
     15 C         137.9738  140.3876  165.1303 C.ar    1  UNL1        0.0363
     16 C         138.7769  139.3350  165.8353 C.ar    1  UNL1       -0.0114
     17 C         139.5341  138.3122  165.0413 C.ar    1  UNL1        0.0363
     18 C         139.4881  138.3419  163.5424 C.ar    1  UNL1        0.1751
     19 C         138.6850  139.3946  162.8374 C.ar    1  UNL1        0.2060
     20 C         137.7225  142.8211  162.6671 C.3     1  UNL1        0.2526
     21 O         137.1248  141.4700  162.9264 O.3     1  UNL1       -0.4683
     22 O         140.2453  137.3190  162.7483 O.3     1  UNL1       -0.4683
     23 C         141.6157  137.6374  162.2282 C.3     1  UNL1        0.2526
     24 O         138.6391  139.4243  161.3383 O.3     1  UNL1       -0.4654
     25 C         139.5812  140.3087  160.5765 C.3     1  UNL1        0.2528
@<TRIPOS>BOND
     1    20    21    1
     2    21    14    1
     3    14    15   ar
     4    15    16   ar
     5    16     1    1
     6     1     2    1
     7     2     3   ar
     8     3     4   ar
     9     4     5   ar
    10     5     6    1
    11     5     7   ar
    12     7     8   ar
    13     8     9    1
    14    16    17   ar
    15    17    18   ar
    16    18    22    1
    17    22    23    1
    18    18    19   ar
    19    19    24    1
    20    24    25    1
    21    19    14   ar
    22     8     2   ar
    23     6    10    1
    24     6    11    1
    25     9    12    1
    26     9    13    1
@<TRIPOS>MOLECULE
*****
 25 26 0 0 0
SMALL
GASTEIGER

@<TRIPOS>ATOM
      1 C         138.7917  139.3127  167.3157 C.3     1  UNL1        0.0572
      2 C         139.5835  140.3417  168.0669 C.ar    1  UNL1        0.0326
      3 C         140.6753  141.1013  167.3733 C.ar    1  UNL1        0.1006
      4 N         141.4670  142.1303  168.1245 N.ar    1  UNL1       -0.2127
      5 C         141.1669  142.3997  169.5693 C.ar    1  UNL1        0.2148
      6 N         141.9587  143.4288  170.3205 N.pl3   1  UNL1       -0.3274
      7 N         140.0752  141.6402  170.2628 N.ar    1  UNL1       -0.1998
      8 C         139.2834  140.6112  169.5117 C.ar    1  UNL1        0.1260
      9 N         138.1916  139.8516  170.2053 N.pl3   1  UNL1       -0.3427
     10 H         142.6753  143.9273  169.8652 H       1  UNL1        0.1452
     11 H         141.7618  143.6056  171.2687 H       1  UNL1        0.1452
     12 H         137.9947  140.0285  171.1535 H       1  UNL1        0.1437
     13 H         137.6719  139.1762  169.7123 H       1  UNL1        0.1437
     14 C         139.4287  138.3659  163.5147 C.ar    1  UNL1        0.1751
     15 C         139.4802  138.3255  165.0132 C.ar    1  UNL1        0.0363
     16 C         138.7401  139.3531  165.8171 C.ar    1  UNL1       -0.0114
     17 C         137.9484  140.4211  165.1225 C.ar    1  UNL1        0.0363
     18 C         137.8969  140.4615  163.6239 C.ar    1  UNL1        0.1751
     19 C         138.6370  139.4339  162.8200 C.ar    1  UNL1        0.2060
     20 C         141.5387  137.6440  162.1818 C.3     1  UNL1        0.2526
     21 O         140.1688  137.3382  162.7108 O.3     1  UNL1       -0.4683
     22 O         137.1052  141.5295  162.9292 O.3     1  UNL1       -0.4683
     23 C         137.6612  142.9175  162.8099 C.3     1  UNL1        0.2526
     24 O         138.5854  139.4743  161.3214 O.3     1  UNL1       -0.4654
     25 C         139.5165  140.3730  160.5629 C.3     1  UNL1        0.2528
@<TRIPOS>BOND
     1    20    21    1
     2    21    14    1
     3    14    15   ar
     4    15    16   ar
     5    16     1    1
     6     1     2    1
     7     2     3   ar
     8     3     4   ar
     9     4     5   ar
    10     5     6    1
    11     5     7   ar
    12     7     8   ar
    13     8     9    1
    14    16    17   ar
    15    17    18   ar
    16    18    22    1
    17    22    23    1
    18    18    19   ar
    19    19    24    1
    20    24    25    1
    21    19    14   ar
    22     8     2   ar
    23     6    10    1
    24     6    11    1
    25     9    12    1
    26     9    13    1
@<TRIPOS>MOLECULE
*****
 25 26 0 0 0
SMALL
GASTEIGER

@<TRIPOS>ATOM
      1 C         143.1340  138.7369  167.2557 C.3     1  UNL1        0.0572
      2 C         142.2000  139.5683  168.0842 C.ar    1  UNL1        0.0326
      3 C         141.3502  140.6178  167.4310 C.ar    1  UNL1        0.1006
      4 N         140.4163  141.4492  168.2595 N.ar    1  UNL1       -0.2127
      5 C         140.3321  141.2312  169.7412 C.ar    1  UNL1        0.2148
      6 N         139.3981  142.0627  170.5697 N.pl3   1  UNL1       -0.3274
      7 N         141.1818  140.1819  170.3944 N.ar    1  UNL1       -0.1998
      8 C         142.1158  139.3504  169.5659 C.ar    1  UNL1        0.1260
      9 N         142.9656  138.3010  170.2191 N.pl3   1  UNL1       -0.3427
     10 H         138.8404  142.7514  170.1410 H       1  UNL1        0.1452
     11 H         139.3428  141.9196  171.5422 H       1  UNL1        0.1452
     12 H         142.9103  138.1580  171.1916 H       1  UNL1        0.1437
     13 H         143.5786  137.7553  169.6754 H       1  UNL1        0.1437
     14 C         141.8628  137.9703  163.5752 C.ar    1  UNL1        0.1751
     15 C         141.9678  137.9504  165.0714 C.ar    1  UNL1        0.0363
     16 C         143.0290  138.7568  165.7595 C.ar    1  UNL1       -0.0114
     17 C         143.9852  139.5831  164.9515 C.ar    1  UNL1        0.0363
     18 C         143.8802  139.6030  163.4553 C.ar    1  UNL1        0.1751
     19 C         142.8190  138.7966  162.7672 C.ar    1  UNL1        0.2060
     20 C         139.3670  137.5961  162.9581 C.3     1  UNL1        0.2526
     21 O         140.8016  137.1639  162.8871 O.3     1  UNL1       -0.4683
     22 O         144.8364  140.4293  162.6472 O.3     1  UNL1       -0.4683
     23 C         145.6078  141.5373  163.3008 C.3     1  UNL1        0.2526
     24 O         142.7140  138.8165  161.2710 O.3     1  UNL1       -0.4654
     25 C         143.2780  137.6845  160.4644 C.3     1  UNL1        0.2528
@<TRIPOS>BOND
     1    20    21    1
     2    21    14    1
     3    14    15   ar
     4    15    16   ar
     5    16     1    1
     6     1     2    1
     7     2     3   ar
     8     3     4   ar
     9     4     5   ar
    10     5     6    1
    11     5     7   ar
    12     7     8   ar
    13     8     9    1
    14    16    17   ar
    15    17    18   ar
    16    18    22    1
    17    22    23    1
    18    18    19   ar
    19    19    24    1
    20    24    25    1
    21    19    14   ar
    22     8     2   ar
    23     6    10    1
    24     6    11    1
    25     9    12    1
    26     9    13    1
@<TRIPOS>MOLECULE
*****
 25 26 0 0 0
SMALL
GASTEIGER

@<TRIPOS>ATOM
      1 C         140.6370  140.1342  167.7012 C.3     1  UNL1        0.0572
      2 C         141.3388  141.1160  168.5919 C.ar    1  UNL1        0.0326
      3 C         142.7164  141.5951  168.2415 C.ar    1  UNL1        0.1006
      4 N         143.4182  142.5770  169.1322 N.ar    1  UNL1       -0.2127
      5 C         142.7423  143.0798  170.3734 C.ar    1  UNL1        0.2148
      6 N         143.4441  144.0617  171.2642 N.pl3   1  UNL1       -0.3274
      7 N         141.3647  142.6007  170.7238 N.ar    1  UNL1       -0.1998
      8 C         140.6630  141.6189  169.8330 C.ar    1  UNL1        0.1260
      9 N         139.2853  141.1398  170.1835 N.pl3   1  UNL1       -0.3427
     10 H         144.3482  144.3761  171.0342 H       1  UNL1        0.1452
     11 H         143.0005  144.3917  172.0788 H       1  UNL1        0.1452
     12 H         138.8418  141.4699  170.9981 H       1  UNL1        0.1437
     13 H         138.8247  140.4954  169.5988 H       1  UNL1        0.1437
     14 C         138.9308  142.5701  165.0734 C.ar    1  UNL1        0.1751
     15 C         139.6750  142.0868  166.2828 C.ar    1  UNL1        0.0363
     16 C         139.8928  140.6175  166.4917 C.ar    1  UNL1       -0.0114
     17 C         139.3664  139.6315  165.4914 C.ar    1  UNL1        0.0363
     18 C         138.6222  140.1149  164.2821 C.ar    1  UNL1        0.1751
     19 C         138.4044  141.5842  164.0731 C.ar    1  UNL1        0.2060
     20 C         139.6757  144.8288  164.0276 C.3     1  UNL1        0.2526
     21 O         138.7130  144.0395  164.8644 O.3     1  UNL1       -0.4683
     22 O         138.0958  139.1289  163.2817 O.3     1  UNL1       -0.4683
     23 C         138.8094  137.8276  163.0640 C.3     1  UNL1        0.2526
     24 O         137.6602  142.0675  162.8637 O.3     1  UNL1       -0.4654
     25 C         138.3868  142.2692  161.5670 C.3     1  UNL1        0.2528
@<TRIPOS>BOND
     1    20    21    1
     2    21    14    1
     3    14    15   ar
     4    15    16   ar
     5    16     1    1
     6     1     2    1
     7     2     3   ar
     8     3     4   ar
     9     4     5   ar
    10     5     6    1
    11     5     7   ar
    12     7     8   ar
    13     8     9    1
    14    16    17   ar
    15    17    18   ar
    16    18    22    1
    17    22    23    1
    18    18    19   ar
    19    19    24    1
    20    24    25    1
    21    19    14   ar
    22     8     2   ar
    23     6    10    1
    24     6    11    1
    25     9    12    1
    26     9    13    1
@<TRIPOS>MOLECULE
*****
 25 26 0 0 0
SMALL
GASTEIGER

@<TRIPOS>ATOM
      1 C         140.6681  142.6455  167.6669 C.3     1  UNL1        0.0572
      2 C         141.2509  141.4530  168.3656 C.ar    1  UNL1        0.0326
      3 C         142.4519  140.7607  167.7924 C.ar    1  UNL1        0.1006
      4 N         143.0347  139.5682  168.4911 N.ar    1  UNL1       -0.2127
      5 C         142.4166  139.0680  169.7631 C.ar    1  UNL1        0.2148
      6 N         142.9994  137.8754  170.4618 N.pl3   1  UNL1       -0.3274
      7 N         141.2157  139.7602  170.3362 N.ar    1  UNL1       -0.1998
      8 C         140.6329  140.9528  169.6375 C.ar    1  UNL1        0.1260
      9 N         139.4319  141.6450  170.2107 N.pl3   1  UNL1       -0.3427
     10 H         143.7876  137.4211  170.0856 H       1  UNL1        0.1452
     11 H         142.5937  137.5471  171.2966 H       1  UNL1        0.1452
     12 H         139.0262  141.3167  171.0455 H       1  UNL1        0.1437
     13 H         139.0493  142.4277  169.7521 H       1  UNL1        0.1437
     14 C         138.5124  140.9025  164.8270 C.ar    1  UNL1        0.1751
     15 C         139.3498  141.0894  166.0574 C.ar    1  UNL1        0.0363
     16 C         139.8307  142.4587  166.4365 C.ar    1  UNL1       -0.0114
     17 C         139.4742  143.6411  165.5852 C.ar    1  UNL1        0.0363
     18 C         138.6368  143.4542  164.3548 C.ar    1  UNL1        0.1751
     19 C         138.1559  142.0849  163.9758 C.ar    1  UNL1        0.2060
     20 C         138.9081  138.6294  163.6327 C.3     1  UNL1        0.2526
     21 O         138.0315  139.5332  164.4479 O.3     1  UNL1       -0.4683
     22 O         138.2803  144.6367  163.5035 O.3     1  UNL1       -0.4683
     23 C         139.3138  145.2571  162.6109 C.3     1  UNL1        0.2526
     24 O         137.3185  141.8981  162.7453 O.3     1  UNL1       -0.4654
     25 C         137.9736  141.5869  161.4323 C.3     1  UNL1        0.2528
@<TRIPOS>BOND
     1    20    21    1
     2    21    14    1
     3    14    15   ar
     4    15    16   ar
     5    16     1    1
     6     1     2    1
     7     2     3   ar
     8     3     4   ar
     9     4     5   ar
    10     5     6    1
    11     5     7   ar
    12     7     8   ar
    13     8     9    1
    14    16    17   ar
    15    17    18   ar
    16    18    22    1
    17    22    23    1
    18    18    19   ar
    19    19    24    1
    20    24    25    1
    21    19    14   ar
    22     8     2   ar
    23     6    10    1
    24     6    11    1
    25     9    12    1
    26     9    13    1
@<TRIPOS>MOLECULE
*****
 25 26 0 0 0
SMALL
GASTEIGER

@<TRIPOS>ATOM
      1 C         140.5418  140.0792  167.7444 C.3     1  UNL1        0.0572
      2 C         141.2607  141.0663  168.6155 C.ar    1  UNL1        0.0326
      3 C         142.6392  141.5282  168.2459 C.ar    1  UNL1        0.1006
      4 N         143.3581  142.5153  169.1170 N.ar    1  UNL1       -0.2127
      5 C         142.6986  143.0404  170.3577 C.ar    1  UNL1        0.2148
      6 N         143.4175  144.0275  171.2289 N.pl3   1  UNL1       -0.3274
      7 N         141.3202  142.5785  170.7273 N.ar    1  UNL1       -0.1998
      8 C         140.6012  141.5914  169.8562 C.ar    1  UNL1        0.1260
      9 N         139.2228  141.1295  170.2258 N.pl3   1  UNL1       -0.3427
     10 H         144.3222  144.3307  170.9863 H       1  UNL1        0.1452
     11 H         142.9846  144.3722  172.0432 H       1  UNL1        0.1452
     12 H         138.7900  141.4742  171.0401 H       1  UNL1        0.1437
     13 H         138.7509  140.4816  169.6541 H       1  UNL1        0.1437
     14 C         138.6662  140.0115  164.2476 C.ar    1  UNL1        0.1751
     15 C         139.3646  139.5456  165.4906 C.ar    1  UNL1        0.0363
     16 C         139.8434  140.5452  166.5013 C.ar    1  UNL1       -0.0114
     17 C         139.6238  142.0107  166.2690 C.ar    1  UNL1        0.0363
     18 C         138.9254  142.4766  165.0260 C.ar    1  UNL1        0.1751
     19 C         138.4466  141.4770  164.0153 C.ar    1  UNL1        0.2060
     20 C         138.9117  137.7092  163.0691 C.3     1  UNL1        0.2526
     21 O         138.1874  139.0119  163.2369 O.3     1  UNL1       -0.4683
     22 O         138.7059  143.9422  164.7936 O.3     1  UNL1       -0.4683
     23 C         139.7390  144.7490  164.0646 C.3     1  UNL1        0.2526
     24 O         137.7482  141.9430  162.7722 O.3     1  UNL1       -0.4654
     25 C         138.5371  142.2133  161.5253 C.3     1  UNL1        0.2528
@<TRIPOS>BOND
     1    20    21    1
     2    21    14    1
     3    14    15   ar
     4    15    16   ar
     5    16     1    1
     6     1     2    1
     7     2     3   ar
     8     3     4   ar
     9     4     5   ar
    10     5     6    1
    11     5     7   ar
    12     7     8   ar
    13     8     9    1
    14    16    17   ar
    15    17    18   ar
    16    18    22    1
    17    22    23    1
    18    18    19   ar
    19    19    24    1
    20    24    25    1
    21    19    14   ar
    22     8     2   ar
    23     6    10    1
    24     6    11    1
    25     9    12    1
    26     9    13    1
@<TRIPOS>MOLECULE
*****
 25 26 0 0 0
SMALL
GASTEIGER

@<TRIPOS>ATOM
      1 C         139.9963  140.4349  168.1324 C.3     1  UNL1        0.0572
      2 C         140.9003  141.3364  168.9199 C.ar    1  UNL1        0.0326
      3 C         140.3680  142.6155  169.4951 C.ar    1  UNL1        0.1006
      4 N         141.2719  143.5170  170.2826 N.ar    1  UNL1       -0.2127
      5 C         142.7081  143.1394  170.4950 C.ar    1  UNL1        0.2148
      6 N         143.6120  144.0409  171.2825 N.pl3   1  UNL1       -0.3274
      7 N         143.2402  141.8604  169.9199 N.ar    1  UNL1       -0.1998
      8 C         142.3363  140.9589  169.1323 C.ar    1  UNL1        0.1260
      9 N         142.8685  139.6798  168.5572 N.pl3   1  UNL1       -0.3427
     10 H         143.2627  144.8804  171.6600 H       1  UNL1        0.1452
     11 H         144.5545  143.7931  171.4220 H       1  UNL1        0.1452
     12 H         143.8111  139.4320  168.6966 H       1  UNL1        0.1437
     13 H         142.2753  139.0881  168.0403 H       1  UNL1        0.1437
     14 C         139.9828  142.2266  164.5912 C.ar    1  UNL1        0.1751
     15 C         140.1895  141.9864  166.0573 C.ar    1  UNL1        0.0363
     16 C         139.7896  140.6751  166.6662 C.ar    1  UNL1       -0.0114
     17 C         139.1830  139.6041  165.8089 C.ar    1  UNL1        0.0363
     18 C         138.9763  139.8444  164.3428 C.ar    1  UNL1        0.1751
     19 C         139.3762  141.1556  163.7340 C.ar    1  UNL1        0.2060
     20 C         139.4676  144.7220  164.0839 C.3     1  UNL1        0.2526
     21 O         140.3827  143.5379  163.9824 O.3     1  UNL1       -0.4683
     22 O         138.3697  138.7733  163.4855 O.3     1  UNL1       -0.4683
     23 C         139.2544  137.8330  162.7220 C.3     1  UNL1        0.2526
     24 O         139.1695  141.3958  162.2678 O.3     1  UNL1       -0.4654
     25 C         137.9255  142.0836  161.7886 C.3     1  UNL1        0.2528
@<TRIPOS>BOND
     1    20    21    1
     2    21    14    1
     3    14    15   ar
     4    15    16   ar
     5    16     1    1
     6     1     2    1
     7     2     3   ar
     8     3     4   ar
     9     4     5   ar
    10     5     6    1
    11     5     7   ar
    12     7     8   ar
    13     8     9    1
    14    16    17   ar
    15    17    18   ar
    16    18    22    1
    17    22    23    1
    18    18    19   ar
    19    19    24    1
    20    24    25    1
    21    19    14   ar
    22     8     2   ar
    23     6    10    1
    24     6    11    1
    25     9    12    1
    26     9    13    1
@<TRIPOS>MOLECULE
*****
 25 26 0 0 0
SMALL
GASTEIGER

@<TRIPOS>ATOM
      1 C         142.6190  140.1097  168.3791 C.3     1  UNL1        0.0572
      2 C         141.6794  140.9694  169.1717 C.ar    1  UNL1        0.0326
      3 C         140.2608  140.5310  169.3849 C.ar    1  UNL1        0.1006
      4 N         139.3212  141.3907  170.1774 N.ar    1  UNL1       -0.2127
      5 C         139.8003  142.6888  170.7568 C.ar    1  UNL1        0.2148
      6 N         138.8607  143.5485  171.5493 N.pl3   1  UNL1       -0.3274
      7 N         141.2189  143.1271  170.5436 N.ar    1  UNL1       -0.1998
      8 C         142.1584  142.2674  169.7510 C.ar    1  UNL1        0.1260
      9 N         143.5771  142.7058  169.5379 N.pl3   1  UNL1       -0.3427
     10 H         137.9297  143.2608  171.6893 H       1  UNL1        0.1452
     11 H         139.1751  144.4004  171.9296 H       1  UNL1        0.1452
     12 H         143.8915  143.5577  169.9181 H       1  UNL1        0.1437
     13 H         144.1938  142.1415  169.0177 H       1  UNL1        0.1437
     14 C         142.5248  139.0378  164.5592 C.ar    1  UNL1        0.1751
     15 C         142.5106  138.9504  166.0565 C.ar    1  UNL1        0.0363
     16 C         142.6332  140.1971  166.8817 C.ar    1  UNL1       -0.0114
     17 C         142.7699  141.5310  166.2095 C.ar    1  UNL1        0.0363
     18 C         142.7841  141.6183  164.7122 C.ar    1  UNL1        0.1751
     19 C         142.6615  140.3717  163.8870 C.ar    1  UNL1        0.2060
     20 C         141.0649  137.3763  163.1960 C.3     1  UNL1        0.2526
     21 O         142.4022  137.7911  163.7340 O.3     1  UNL1       -0.4683
     22 O         142.9209  142.9523  164.0399 O.3     1  UNL1       -0.4683
     23 C         144.1769  143.7538  164.2124 C.3     1  UNL1        0.2526
     24 O         142.6757  140.4590  162.3896 O.3     1  UNL1       -0.4654
     25 C         143.9713  140.3374  161.6434 C.3     1  UNL1        0.2528
@<TRIPOS>BOND
     1    20    21    1
     2    21    14    1
     3    14    15   ar
     4    15    16   ar
     5    16     1    1
     6     1     2    1
     7     2     3   ar
     8     3     4   ar
     9     4     5   ar
    10     5     6    1
    11     5     7   ar
    12     7     8   ar
    13     8     9    1
    14    16    17   ar
    15    17    18   ar
    16    18    22    1
    17    22    23    1
    18    18    19   ar
    19    19    24    1
    20    24    25    1
    21    19    14   ar
    22     8     2   ar
    23     6    10    1
    24     6    11    1
    25     9    12    1
    26     9    13    1
@<TRIPOS>MOLECULE
*****
 25 26 0 0 0
SMALL
GASTEIGER

@<TRIPOS>ATOM
      1 C         143.1841  138.6677  167.1701 C.3     1  UNL1        0.0572
      2 C         142.6756  139.8287  167.9723 C.ar    1  UNL1        0.0326
      3 C         142.3287  141.1181  167.2888 C.ar    1  UNL1        0.1006
      4 N         141.8202  142.2790  168.0911 N.ar    1  UNL1       -0.2127
      5 C         141.6586  142.1505  169.5769 C.ar    1  UNL1        0.2148
      6 N         141.1500  143.3115  170.3791 N.pl3   1  UNL1       -0.3274
      7 N         142.0054  140.8612  170.2603 N.ar    1  UNL1       -0.1998
      8 C         142.5139  139.7002  169.4580 C.ar    1  UNL1        0.1260
      9 N         142.8608  138.4108  170.1415 N.pl3   1  UNL1       -0.3427
     10 H         140.9224  144.1578  169.9305 H       1  UNL1        0.1452
     11 H         141.0440  143.2272  171.3542 H       1  UNL1        0.1452
     12 H         142.7547  138.3265  171.1166 H       1  UNL1        0.1437
     13 H         143.1946  137.6488  169.6150 H       1  UNL1        0.1437
     14 C         143.8225  139.4027  163.3227 C.ar    1  UNL1        0.1751
     15 C         143.9857  139.4128  164.8137 C.ar    1  UNL1        0.0363
     16 C         143.0208  138.6576  165.6789 C.ar    1  UNL1       -0.0114
     17 C         141.8927  137.8923  165.0532 C.ar    1  UNL1        0.0363
     18 C         141.7295  137.8822  163.5621 C.ar    1  UNL1        0.1751
     19 C         142.6944  138.6374  162.6969 C.ar    1  UNL1        0.2060
     20 C         144.7007  141.6526  162.3652 C.3     1  UNL1        0.2526
     21 O         144.7873  140.1580  162.4574 O.3     1  UNL1       -0.4683
     22 O         140.6014  137.1168  162.9363 O.3     1  UNL1       -0.4683
     23 C         139.2716  137.7784  162.7266 C.3     1  UNL1        0.2526
     24 O         142.5311  138.6273  161.2058 O.3     1  UNL1       -0.4654
     25 C         143.1321  137.5190  160.3930 C.3     1  UNL1        0.2528
@<TRIPOS>BOND
     1    20    21    1
     2    21    14    1
     3    14    15   ar
     4    15    16   ar
     5    16     1    1
     6     1     2    1
     7     2     3   ar
     8     3     4   ar
     9     4     5   ar
    10     5     6    1
    11     5     7   ar
    12     7     8   ar
    13     8     9    1
    14    16    17   ar
    15    17    18   ar
    16    18    22    1
    17    22    23    1
    18    18    19   ar
    19    19    24    1
    20    24    25    1
    21    19    14   ar
    22     8     2   ar
    23     6    10    1
    24     6    11    1
    25     9    12    1
    26     9    13    1
