@<TRIPOS>MOLECULE
*****
 60 66 0 0 0
SMALL
GASTEIGER

@<TRIPOS>ATOM
      1 C         141.8524  142.2507  167.0659 C.ar    1  UNL1        0.1090
      2 C         143.1510  142.4149  167.7986 C.ar    1  UNL1        0.0405
      3 C         143.2687  141.9680  169.2256 C.ar    1  UNL1        0.1596
      4 F         144.5673  142.1323  169.9583 F       1  UNL1       -0.2025
      5 C         142.0879  141.3568  169.9200 C.ar    1  UNL1        0.1316
      6 N         140.7894  141.1926  169.1873 N.ar    1  UNL1       -0.2073
      7 C         140.6716  141.6395  167.7602 C.ar    1  UNL1        0.2341
      8 N         140.4928  143.3973  165.1722 N.am    1  UNL1       -0.3024
      9 C         141.7347  142.6976  165.6389 C.2     1  UNL1        0.2504
     10 O         142.8590  142.4448  164.6786 O.2     1  UNL1       -0.2700
     11 H         139.7549  143.5633  165.8025 H       1  UNL1        0.1497
     12 C         140.1396  144.7383  160.8912 C.3     1  UNL1        0.0720
     13 C         140.4274  145.7403  161.9696 C.3     1  UNL1        0.0213
     14 C         140.5452  145.2933  163.3966 C.3     1  UNL1        0.0213
     15 C         140.3750  143.8443  163.7451 C.3     1  UNL1        0.0720
     16 C         140.0872  142.8423  162.6667 C.3     1  UNL1        0.0213
     17 C         139.9694  143.2893  161.2397 C.3     1  UNL1        0.0213
     18 C         141.2135  145.1164  158.5559 C.2     1  UNL1        0.2487
     19 O         142.5231  144.6006  159.0746 O.2     1  UNL1       -0.2700
     20 N         140.0218  145.1852  159.4641 N.am    1  UNL1       -0.3024
     21 H         139.1623  145.5237  159.1236 H       1  UNL1        0.1497
     22 C         138.8632  147.9890  154.9194 C.3     1  UNL1        0.0310
     23 C         139.9206  146.9997  155.3106 C.ar    1  UNL1       -0.0215
     24 C         140.8602  146.4573  154.2748 C.ar    1  UNL1       -0.0011
     25 C         141.9176  145.4679  154.6660 C.ar    1  UNL1        0.0364
     26 C         142.0354  145.0209  156.0930 C.ar    1  UNL1        0.1379
     27 O         143.0928  144.0315  156.4842 O.3     1  UNL1       -0.5054
     28 C         141.0958  145.5633  157.1288 C.ar    1  UNL1        0.0866
     29 C         140.0384  146.5527  156.7376 C.ar    1  UNL1        0.0033
     30 H         143.6798  143.6927  155.8372 H       1  UNL1        0.2922
     31 O         139.3731  141.4752  167.0276 O.3     1  UNL1       -0.4360
     32 C         139.0946  140.2116  166.2689 C.ar    1  UNL1        0.1472
     33 C         138.5965  138.9962  166.9931 C.ar    1  UNL1        0.0376
     34 C         138.3181  137.7326  166.2344 C.ar    1  UNL1        0.0031
     35 C         138.5378  137.6843  164.7514 C.ar    1  UNL1        0.0002
     36 C         139.0360  138.8997  164.0271 C.ar    1  UNL1        0.0028
     37 C         139.3144  140.1633  164.7859 C.ar    1  UNL1        0.0375
     38 C         139.2557  138.8515  162.5440 C.ar    1  UNL1       -0.0026
     39 C         138.2996  139.5473  161.6212 C.ar    1  UNL1       -0.0005
     40 C         138.5193  139.4991  160.1382 C.ar    1  UNL1       -0.0029
     41 C         139.6951  138.7551  159.5780 C.ar    1  UNL1       -0.0064
     42 C         140.6513  138.0593  160.5009 C.ar    1  UNL1       -0.0058
     43 C         140.4315  138.1075  161.9839 C.ar    1  UNL1       -0.0064
     44 C         139.9149  138.7069  158.0949 C.3     1  UNL1        0.0992
     45 N         141.3094  138.6550  157.5447 N.3     1  UNL1       -0.2666
     46 C         141.7860  137.4288  156.8240 C.3     1  UNL1        0.0882
     47 C         143.1805  137.3768  156.2738 C.3     1  UNL1        0.0702
     48 C         143.6572  136.1508  155.5531 C.3     1  UNL1        0.0186
     49 N         144.0983  138.5510  156.4442 N.3     1  UNL1       -0.2974
     50 C         143.6216  139.7771  157.1649 C.3     1  UNL1        0.0702
     51 C         144.5394  140.9513  157.3354 C.3     1  UNL1        0.0186
     52 C         142.2271  139.8291  157.7152 C.3     1  UNL1        0.0882
     53 H         144.3734  138.8481  155.5080 H       1  UNL1        0.1232
     54 C         141.3877  137.4116  162.9067 C.3     1  UNL1        0.0993
     55 N         142.4833  138.1875  163.5757 N.3     1  UNL1       -0.2646
     56 C         143.5536  138.8379  162.7501 C.3     1  UNL1        0.1049
     57 C         144.6493  139.6138  163.4191 C.3     1  UNL1        0.1595
     58 O         144.6746  139.7394  164.9136 O.3     1  UNL1       -0.3508
     59 C         143.6044  139.0891  165.7391 C.3     1  UNL1        0.1595
     60 C         142.5087  138.3131  165.0702 C.3     1  UNL1        0.1049
@<TRIPOS>BOND
     1    22    23    1
     2    23    24   ar
     3    24    25   ar
     4    25    26   ar
     5    26    27    1
     6    26    28   ar
     7    28    18    1
     8    18    19    2
     9    18    20   am
    10    12    20    1
    11    12    13    1
    12    13    14    1
    13    14    15    1
    14    15     8    1
    15     8     9   am
    16     9    10    2
    17     9     1    1
    18     1     2   ar
    19     2     3   ar
    20     3     4    1
    21     3     5   ar
    22     5     6   ar
    23     6     7   ar
    24     7    31    1
    25    31    32    1
    26    32    33   ar
    27    33    34   ar
    28    34    35   ar
    29    35    36   ar
    30    36    38    1
    31    38    39   ar
    32    39    40   ar
    33    40    41   ar
    34    41    44    1
    35    44    45    1
    36    45    46    1
    37    46    47    1
    38    47    48    1
    39    47    49    1
    40    49    50    1
    41    50    51    1
    42    50    52    1
    43    41    42   ar
    44    42    43   ar
    45    43    54    1
    46    54    55    1
    47    55    56    1
    48    56    57    1
    49    57    58    1
    50    58    59    1
    51    59    60    1
    52    36    37   ar
    53    15    16    1
    54    16    17    1
    55    28    29   ar
    56    29    23   ar
    57    17    12    1
    58     7     1   ar
    59    37    32   ar
    60    43    38   ar
    61    60    55    1
    62    52    45    1
    63    27    30    1
    64    20    21    1
    65     8    11    1
    66    49    53    1
@<TRIPOS>MOLECULE
*****
 60 66 0 0 0
SMALL
GASTEIGER

@<TRIPOS>ATOM
      1 C         141.9521  142.1589  167.5613 C.ar    1  UNL1        0.1090
      2 C         143.2886  142.4061  168.1961 C.ar    1  UNL1        0.0405
      3 C         143.5323  141.9912  169.6168 C.ar    1  UNL1        0.1596
      4 F         144.8688  142.2384  170.2515 F       1  UNL1       -0.2025
      5 C         142.4397  141.3290  170.4027 C.ar    1  UNL1        0.1316
      6 N         141.1033  141.0818  169.7680 N.ar    1  UNL1       -0.2073
      7 C         140.8595  141.4968  168.3473 C.ar    1  UNL1        0.2341
      8 N         142.6990  142.2133  165.0736 N.am    1  UNL1       -0.3024
      9 C         141.7084  142.5738  166.1406 C.2     1  UNL1        0.2504
     10 O         140.4740  143.3492  165.7870 O.2     1  UNL1       -0.2700
     11 H         143.5091  141.7043  165.3057 H       1  UNL1        0.1497
     12 C         141.9678  143.4579  160.8114 C.3     1  UNL1        0.0720
     13 C         141.5883  142.0797  161.2658 C.3     1  UNL1        0.0213
     14 C         141.8320  141.6649  162.6865 C.3     1  UNL1        0.0213
     15 C         142.4552  142.6282  163.6528 C.3     1  UNL1        0.0720
     16 C         142.8347  144.0064  163.1983 C.3     1  UNL1        0.0213
     17 C         142.5910  144.4212  161.7776 C.3     1  UNL1        0.0213
     18 C         140.5870  144.7946  159.0630 C.2     1  UNL1        0.2487
     19 O         139.6936  145.3016  160.1562 O.2     1  UNL1       -0.2700
     20 N         141.7240  143.8728  159.3906 N.am    1  UNL1       -0.3024
     21 H         142.3104  143.5401  158.6731 H       1  UNL1        0.1497
     22 C         137.5535  144.8360  154.8444 C.3     1  UNL1        0.0310
     23 C         138.8265  145.2302  155.5330 C.ar    1  UNL1       -0.0215
     24 C         139.8557  146.0393  154.8009 C.ar    1  UNL1       -0.0011
     25 C         141.1287  146.4335  155.4894 C.ar    1  UNL1        0.0364
     26 C         141.3724  146.0187  156.9101 C.ar    1  UNL1        0.1379
     27 O         142.6454  146.4129  157.5987 O.3     1  UNL1       -0.5054
     28 C         140.3432  145.2096  157.6423 C.ar    1  UNL1        0.0866
     29 C         139.0703  144.8153  156.9537 C.ar    1  UNL1        0.0033
     30 H         143.2883  146.9183  157.1414 H       1  UNL1        0.2922
     31 O         139.5231  141.2495  167.7126 O.3     1  UNL1       -0.4360
     32 C         139.3007  140.0159  166.8888 C.ar    1  UNL1        0.1472
     33 C         138.2757  139.0060  167.3122 C.ar    1  UNL1        0.0376
     34 C         138.0533  137.7723  166.4884 C.ar    1  UNL1        0.0031
     35 C         138.8560  137.5485  165.2412 C.ar    1  UNL1        0.0002
     36 C         139.8811  138.5584  164.8178 C.ar    1  UNL1        0.0028
     37 C         140.1035  139.7921  165.6416 C.ar    1  UNL1        0.0375
     38 C         140.6839  138.3347  163.5706 C.ar    1  UNL1       -0.0026
     39 C         142.1212  137.9170  163.6686 C.ar    1  UNL1       -0.0005
     40 C         142.9240  137.6933  162.4215 C.ar    1  UNL1       -0.0029
     41 C         142.2894  137.8872  161.0763 C.ar    1  UNL1       -0.0064
     42 C         140.8521  138.3048  160.9782 C.ar    1  UNL1       -0.0058
     43 C         140.0493  138.5285  162.2253 C.ar    1  UNL1       -0.0064
     44 C         143.0922  137.6634  159.8290 C.3     1  UNL1        0.0992
     45 N         143.2196  138.7590  158.8125 N.3     1  UNL1       -0.2666
     46 C         142.6520  138.5750  157.4362 C.3     1  UNL1        0.0882
     47 C         142.7795  139.6706  156.4197 C.3     1  UNL1        0.0702
     48 C         142.2119  139.4866  155.0435 C.3     1  UNL1        0.0186
     49 N         143.4745  140.9503  156.7794 N.3     1  UNL1       -0.2974
     50 C         144.0421  141.1343  158.1556 C.3     1  UNL1        0.0702
     51 C         144.7371  142.4140  158.5154 C.3     1  UNL1        0.0186
     52 C         143.9146  140.0387  159.1721 C.3     1  UNL1        0.0882
     53 H         142.8001  141.7020  156.6361 H       1  UNL1        0.1232
     54 C         138.6120  138.9462  162.1273 C.3     1  UNL1        0.0993
     55 N         138.2612  140.3963  161.9727 N.3     1  UNL1       -0.2646
     56 C         138.3271  141.0441  160.6213 C.3     1  UNL1        0.1049
     57 C         137.9763  142.4942  160.4668 C.3     1  UNL1        0.1595
     58 O         137.5596  143.2967  161.6636 O.3     1  UNL1       -0.3508
     59 C         137.4937  142.6491  163.0150 C.3     1  UNL1        0.1595
     60 C         137.8445  141.1988  163.1695 C.3     1  UNL1        0.1049
@<TRIPOS>BOND
     1    22    23    1
     2    23    24   ar
     3    24    25   ar
     4    25    26   ar
     5    26    27    1
     6    26    28   ar
     7    28    18    1
     8    18    19    2
     9    18    20   am
    10    12    20    1
    11    12    13    1
    12    13    14    1
    13    14    15    1
    14    15     8    1
    15     8     9   am
    16     9    10    2
    17     9     1    1
    18     1     2   ar
    19     2     3   ar
    20     3     4    1
    21     3     5   ar
    22     5     6   ar
    23     6     7   ar
    24     7    31    1
    25    31    32    1
    26    32    33   ar
    27    33    34   ar
    28    34    35   ar
    29    35    36   ar
    30    36    38    1
    31    38    39   ar
    32    39    40   ar
    33    40    41   ar
    34    41    44    1
    35    44    45    1
    36    45    46    1
    37    46    47    1
    38    47    48    1
    39    47    49    1
    40    49    50    1
    41    50    51    1
    42    50    52    1
    43    41    42   ar
    44    42    43   ar
    45    43    54    1
    46    54    55    1
    47    55    56    1
    48    56    57    1
    49    57    58    1
    50    58    59    1
    51    59    60    1
    52    36    37   ar
    53    15    16    1
    54    16    17    1
    55    28    29   ar
    56    29    23   ar
    57    17    12    1
    58     7     1   ar
    59    37    32   ar
    60    43    38   ar
    61    60    55    1
    62    52    45    1
    63    27    30    1
    64    20    21    1
    65     8    11    1
    66    49    53    1
@<TRIPOS>MOLECULE
*****
 60 66 0 0 0
SMALL
GASTEIGER

@<TRIPOS>ATOM
      1 C         141.6509  142.2842  166.5981 C.ar    1  UNL1        0.1090
      2 C         142.9171  142.5066  167.3709 C.ar    1  UNL1        0.0405
      3 C         143.0235  142.0307  168.7894 C.ar    1  UNL1        0.1596
      4 F         144.2898  142.2531  169.5622 F       1  UNL1       -0.2025
      5 C         141.8636  141.3323  169.4352 C.ar    1  UNL1        0.1316
      6 N         140.5974  141.1099  168.6624 N.ar    1  UNL1       -0.2073
      7 C         140.4910  141.5858  167.2439 C.ar    1  UNL1        0.2341
      8 N         140.3050  143.4666  164.7166 N.am    1  UNL1       -0.3024
      9 C         141.5445  142.7601  165.1796 C.2     1  UNL1        0.2504
     10 O         142.6776  142.5294  164.2242 O.2     1  UNL1       -0.2700
     11 H         139.5613  143.6180  165.3437 H       1  UNL1        0.1497
     12 C         139.9858  144.8944  160.4610 C.3     1  UNL1        0.0720
     13 C         140.0032  143.4245  160.7597 C.3     1  UNL1        0.0213
     14 C         140.1096  142.9486  162.1781 C.3     1  UNL1        0.0213
     15 C         140.1986  143.9426  163.2980 C.3     1  UNL1        0.0720
     16 C         140.1813  145.4124  162.9994 C.3     1  UNL1        0.0213
     17 C         140.0749  145.8883  161.5809 C.3     1  UNL1        0.0213
     18 C         141.0866  145.3511  158.1524 C.2     1  UNL1        0.2487
     19 O         142.4003  144.8560  158.6808 O.2     1  UNL1       -0.2700
     20 N         139.8794  145.3703  159.0425 N.am    1  UNL1       -0.3024
     21 H         139.0173  145.6953  158.6957 H       1  UNL1        0.1497
     22 C         142.5228  145.0065  153.1706 C.3     1  UNL1        0.0310
     23 C         141.6983  145.6548  154.2430 C.ar    1  UNL1       -0.0215
     24 C         140.7675  146.7789  153.8969 C.ar    1  UNL1       -0.0011
     25 C         139.9430  147.4271  154.9693 C.ar    1  UNL1        0.0364
     26 C         140.0494  146.9512  156.3878 C.ar    1  UNL1        0.1379
     27 O         139.2249  147.5995  157.4602 O.3     1  UNL1       -0.5054
     28 C         140.9802  145.8271  156.7339 C.ar    1  UNL1        0.0866
     29 C         141.8047  145.1789  155.6615 C.ar    1  UNL1        0.0033
     30 H         138.6435  148.3017  157.2440 H       1  UNL1        0.2922
     31 O         139.2248  141.3634  166.4711 O.3     1  UNL1       -0.4360
     32 C         139.0997  140.1771  165.5617 C.ar    1  UNL1        0.1472
     33 C         138.9910  138.7972  166.1395 C.ar    1  UNL1        0.0376
     34 C         138.8659  137.6109  165.2300 C.ar    1  UNL1        0.0031
     35 C         138.8496  137.8046  163.7427 C.ar    1  UNL1        0.0002
     36 C         138.9582  139.1845  163.1649 C.ar    1  UNL1        0.0028
     37 C         139.0833  140.3708  164.0744 C.ar    1  UNL1        0.0375
     38 C         138.9419  139.3782  161.6775 C.ar    1  UNL1       -0.0026
     39 C         137.8447  140.1758  161.0371 C.ar    1  UNL1       -0.0005
     40 C         137.8283  140.3695  159.5498 C.ar    1  UNL1       -0.0029
     41 C         138.9090  139.7657  158.7029 C.ar    1  UNL1       -0.0064
     42 C         140.0062  138.9681  159.3432 C.ar    1  UNL1       -0.0058
     43 C         140.0226  138.7744  160.8306 C.ar    1  UNL1       -0.0064
     44 C         138.8926  139.9594  157.2154 C.3     1  UNL1        0.0992
     45 N         137.8772  140.8683  156.5887 N.3     1  UNL1       -0.2666
     46 C         138.2435  142.2837  156.2527 C.3     1  UNL1        0.0882
     47 C         137.2281  143.1926  155.6259 C.3     1  UNL1        0.0702
     48 C         137.5943  144.6078  155.2900 C.3     1  UNL1        0.0186
     49 N         135.8464  142.6861  155.3351 N.3     1  UNL1       -0.2974
     50 C         135.4802  141.2709  155.6710 C.3     1  UNL1        0.0702
     51 C         134.0985  140.7644  155.3801 C.3     1  UNL1        0.0186
     52 C         136.4956  140.3620  156.2978 C.3     1  UNL1        0.0882
     53 H         135.6964  142.7990  154.3325 H       1  UNL1        0.1232
     54 C         141.1198  137.9768  161.4709 C.3     1  UNL1        0.0993
     55 N         142.2994  138.6766  162.0781 N.3     1  UNL1       -0.2646
     56 C         143.1617  139.5653  161.2315 C.3     1  UNL1        0.1049
     57 C         144.3414  140.2650  161.8387 C.3     1  UNL1        0.1595
     58 O         144.6588  140.0762  163.2925 O.3     1  UNL1       -0.3508
     59 C         143.7965  139.1876  164.1391 C.3     1  UNL1        0.1595
     60 C         142.6168  138.4878  163.5320 C.3     1  UNL1        0.1049
@<TRIPOS>BOND
     1    22    23    1
     2    23    24   ar
     3    24    25   ar
     4    25    26   ar
     5    26    27    1
     6    26    28   ar
     7    28    18    1
     8    18    19    2
     9    18    20   am
    10    12    20    1
    11    12    13    1
    12    13    14    1
    13    14    15    1
    14    15     8    1
    15     8     9   am
    16     9    10    2
    17     9     1    1
    18     1     2   ar
    19     2     3   ar
    20     3     4    1
    21     3     5   ar
    22     5     6   ar
    23     6     7   ar
    24     7    31    1
    25    31    32    1
    26    32    33   ar
    27    33    34   ar
    28    34    35   ar
    29    35    36   ar
    30    36    38    1
    31    38    39   ar
    32    39    40   ar
    33    40    41   ar
    34    41    44    1
    35    44    45    1
    36    45    46    1
    37    46    47    1
    38    47    48    1
    39    47    49    1
    40    49    50    1
    41    50    51    1
    42    50    52    1
    43    41    42   ar
    44    42    43   ar
    45    43    54    1
    46    54    55    1
    47    55    56    1
    48    56    57    1
    49    57    58    1
    50    58    59    1
    51    59    60    1
    52    36    37   ar
    53    15    16    1
    54    16    17    1
    55    28    29   ar
    56    29    23   ar
    57    17    12    1
    58     7     1   ar
    59    37    32   ar
    60    43    38   ar
    61    60    55    1
    62    52    45    1
    63    27    30    1
    64    20    21    1
    65     8    11    1
    66    49    53    1
@<TRIPOS>MOLECULE
*****
 60 66 0 0 0
SMALL
GASTEIGER

@<TRIPOS>ATOM
      1 C         141.6660  142.2764  166.5206 C.ar    1  UNL1        0.1090
      2 C         142.9118  142.5386  167.3141 C.ar    1  UNL1        0.0405
      3 C         143.0047  142.0775  168.7384 C.ar    1  UNL1        0.1596
      4 F         144.2505  142.3397  169.5319 F       1  UNL1       -0.2025
      5 C         141.8520  141.3543  169.3694 C.ar    1  UNL1        0.1316
      6 N         140.6063  141.0921  168.5760 N.ar    1  UNL1       -0.2073
      7 C         140.5133  141.5532  167.1516 C.ar    1  UNL1        0.2341
      8 N         140.3225  143.4030  164.6036 N.am    1  UNL1       -0.3024
      9 C         141.5731  142.7374  165.0963 C.2     1  UNL1        0.2504
     10 O         142.7308  142.5328  164.1647 O.2     1  UNL1       -0.2700
     11 H         139.5626  143.5373  165.2150 H       1  UNL1        0.1497
     12 C         140.0435  144.7861  160.3305 C.3     1  UNL1        0.0720
     13 C         139.8215  143.3413  160.6672 C.3     1  UNL1        0.0213
     14 C         139.9145  142.8803  162.0915 C.3     1  UNL1        0.0213
     15 C         140.2295  143.8641  163.1792 C.3     1  UNL1        0.0720
     16 C         140.4515  145.3088  162.8425 C.3     1  UNL1        0.0213
     17 C         140.3585  145.7698  161.4182 C.3     1  UNL1        0.0213
     18 C         141.1781  145.2733  158.0446 C.2     1  UNL1        0.2487
     19 O         142.4987  144.8384  158.6074 O.2     1  UNL1       -0.2700
     20 N         139.9505  145.2471  158.9061 N.am    1  UNL1       -0.3024
     21 H         139.0837  145.5326  158.5367 H       1  UNL1        0.1497
     22 C         142.7143  144.9258  153.0929 C.3     1  UNL1        0.0310
     23 C         141.8532  145.5605  154.1444 C.ar    1  UNL1       -0.0215
     24 C         140.8992  146.6563  153.7715 C.ar    1  UNL1       -0.0011
     25 C         140.0381  147.2911  154.8230 C.ar    1  UNL1        0.0364
     26 C         140.1311  146.8301  156.2473 C.ar    1  UNL1        0.1379
     27 O         139.2700  147.4649  157.2988 O.3     1  UNL1       -0.5054
     28 C         141.0851  145.7343  156.6202 C.ar    1  UNL1        0.0866
     29 C         141.9462  145.0995  155.5687 C.ar    1  UNL1        0.0033
     30 H         138.6741  148.1494  157.0659 H       1  UNL1        0.2922
     31 O         139.2676  141.2910  166.3583 O.3     1  UNL1       -0.4360
     32 C         139.1550  140.0466  165.5283 C.ar    1  UNL1        0.1472
     33 C         138.7661  138.7486  166.1717 C.ar    1  UNL1        0.0376
     34 C         138.6535  137.5042  165.3418 C.ar    1  UNL1        0.0031
     35 C         138.9298  137.5578  163.8684 C.ar    1  UNL1        0.0002
     36 C         139.3186  138.8558  163.2250 C.ar    1  UNL1        0.0028
     37 C         139.4313  140.1001  164.0550 C.ar    1  UNL1        0.0375
     38 C         139.5949  138.9094  161.7516 C.ar    1  UNL1       -0.0026
     39 C         138.5462  139.4229  160.8101 C.ar    1  UNL1       -0.0005
     40 C         138.8224  139.4766  159.3368 C.ar    1  UNL1       -0.0029
     41 C         140.1474  139.0167  158.8050 C.ar    1  UNL1       -0.0064
     42 C         141.1961  138.5031  159.7465 C.ar    1  UNL1       -0.0058
     43 C         140.9199  138.4495  161.2198 C.ar    1  UNL1       -0.0064
     44 C         140.4237  139.0703  157.3315 C.3     1  UNL1        0.0992
     45 N         141.8021  138.7801  156.8159 N.3     1  UNL1       -0.2666
     46 C         142.8086  139.8865  156.7022 C.3     1  UNL1        0.0882
     47 C         144.1870  139.5964  156.1866 C.3     1  UNL1        0.0702
     48 C         145.1935  140.7027  156.0728 C.3     1  UNL1        0.0186
     49 N         144.5588  138.1998  155.7847 N.3     1  UNL1       -0.2974
     50 C         143.5523  137.0935  155.8984 C.3     1  UNL1        0.0702
     51 C         143.9241  135.6970  155.4965 C.3     1  UNL1        0.0186
     52 C         142.1739  137.3837  156.4140 C.3     1  UNL1        0.0882
     53 H         145.3579  137.9311  156.3588 H       1  UNL1        0.1232
     54 C         141.9686  137.9360  162.1613 C.3     1  UNL1        0.0993
     55 N         143.0768  138.8395  162.6146 N.3     1  UNL1       -0.2646
     56 C         143.6592  139.8459  161.6668 C.3     1  UNL1        0.1049
     57 C         144.7674  140.7494  162.1201 C.3     1  UNL1        0.1595
     58 O         145.2933  140.6465  163.5211 O.3     1  UNL1       -0.3508
     59 C         144.7110  139.6402  164.4689 C.3     1  UNL1        0.1595
     60 C         143.6028  138.7366  164.0156 C.3     1  UNL1        0.1049
@<TRIPOS>BOND
     1    22    23    1
     2    23    24   ar
     3    24    25   ar
     4    25    26   ar
     5    26    27    1
     6    26    28   ar
     7    28    18    1
     8    18    19    2
     9    18    20   am
    10    12    20    1
    11    12    13    1
    12    13    14    1
    13    14    15    1
    14    15     8    1
    15     8     9   am
    16     9    10    2
    17     9     1    1
    18     1     2   ar
    19     2     3   ar
    20     3     4    1
    21     3     5   ar
    22     5     6   ar
    23     6     7   ar
    24     7    31    1
    25    31    32    1
    26    32    33   ar
    27    33    34   ar
    28    34    35   ar
    29    35    36   ar
    30    36    38    1
    31    38    39   ar
    32    39    40   ar
    33    40    41   ar
    34    41    44    1
    35    44    45    1
    36    45    46    1
    37    46    47    1
    38    47    48    1
    39    47    49    1
    40    49    50    1
    41    50    51    1
    42    50    52    1
    43    41    42   ar
    44    42    43   ar
    45    43    54    1
    46    54    55    1
    47    55    56    1
    48    56    57    1
    49    57    58    1
    50    58    59    1
    51    59    60    1
    52    36    37   ar
    53    15    16    1
    54    16    17    1
    55    28    29   ar
    56    29    23   ar
    57    17    12    1
    58     7     1   ar
    59    37    32   ar
    60    43    38   ar
    61    60    55    1
    62    52    45    1
    63    27    30    1
    64    20    21    1
    65     8    11    1
    66    49    53    1
@<TRIPOS>MOLECULE
*****
 60 66 0 0 0
SMALL
GASTEIGER

@<TRIPOS>ATOM
      1 C         142.9032  141.2196  166.4387 C.ar    1  UNL1        0.1090
      2 C         142.9198  142.1093  167.6462 C.ar    1  UNL1        0.0405
      3 C         142.8733  141.5097  169.0203 C.ar    1  UNL1        0.1596
      4 F         142.8900  142.3995  170.2279 F       1  UNL1       -0.2025
      5 C         142.8103  140.0204  169.1870 C.ar    1  UNL1        0.1316
      6 N         142.7937  139.1306  167.9796 N.ar    1  UNL1       -0.2073
      7 C         142.8401  139.7302  166.6053 C.ar    1  UNL1        0.2341
      8 N         141.6986  142.3636  164.4412 N.am    1  UNL1       -0.3024
      9 C         142.9496  141.8192  165.0645 C.2     1  UNL1        0.2504
     10 O         144.2470  141.8744  164.3138 O.2     1  UNL1       -0.2700
     11 H         140.8471  142.3273  164.9340 H       1  UNL1        0.1497
     12 C         141.8378  144.1624  160.3187 C.3     1  UNL1        0.0720
     13 C         141.8128  142.6720  160.4862 C.3     1  UNL1        0.0213
     14 C         141.7664  142.0724  161.8603 C.3     1  UNL1        0.0213
     15 C         141.7450  142.9632  163.0670 C.3     1  UNL1        0.0720
     16 C         141.7700  144.4536  162.8995 C.3     1  UNL1        0.0213
     17 C         141.8164  145.0532  161.5254 C.3     1  UNL1        0.0213
     18 C         140.6331  144.8492  158.1216 C.2     1  UNL1        0.2487
     19 O         139.3356  144.3368  158.6729 O.2     1  UNL1       -0.2700
     20 N         141.8842  144.7621  158.9445 N.am    1  UNL1       -0.3024
     21 H         142.7358  145.0984  158.5827 H       1  UNL1        0.1497
     22 C         139.2783  148.6144  154.8068 C.3     1  UNL1        0.0310
     23 C         140.0021  147.3315  155.0901 C.ar    1  UNL1       -0.0215
     24 C         140.7722  146.6482  153.9992 C.ar    1  UNL1       -0.0011
     25 C         141.4959  145.3653  154.2825 C.ar    1  UNL1        0.0364
     26 C         141.4496  144.7656  155.6566 C.ar    1  UNL1        0.1379
     27 O         142.1733  143.4827  155.9398 O.3     1  UNL1       -0.5054
     28 C         140.6795  145.4489  156.7474 C.ar    1  UNL1        0.0866
     29 C         139.9557  146.7318  156.4642 C.ar    1  UNL1        0.0033
     30 H         142.6544  143.0558  155.2584 H       1  UNL1        0.2922
     31 O         142.8235  138.8404  165.3979 O.3     1  UNL1       -0.4360
     32 C         141.5320  138.5664  164.6859 C.ar    1  UNL1        0.1472
     33 C         140.3995  137.9057  165.4144 C.ar    1  UNL1        0.0376
     34 C         139.1080  137.6317  164.7024 C.ar    1  UNL1        0.0031
     35 C         138.9490  138.0183  163.2619 C.ar    1  UNL1        0.0002
     36 C         140.0816  138.6790  162.5333 C.ar    1  UNL1        0.0028
     37 C         141.3730  138.9531  163.2453 C.ar    1  UNL1        0.0375
     38 C         139.9226  139.0657  161.0927 C.ar    1  UNL1       -0.0026
     39 C         140.9468  138.6375  160.0839 C.ar    1  UNL1       -0.0005
     40 C         140.7879  139.0242  158.6433 C.ar    1  UNL1       -0.0029
     41 C         139.6049  139.8391  158.2116 C.ar    1  UNL1       -0.0064
     42 C         138.5808  140.2673  159.2205 C.ar    1  UNL1       -0.0058
     43 C         138.7396  139.8807  160.6610 C.ar    1  UNL1       -0.0064
     44 C         139.4460  140.2258  156.7710 C.3     1  UNL1        0.0992
     45 N         138.2562  141.0295  156.3371 N.3     1  UNL1       -0.2666
     46 C         138.4271  142.4638  155.9325 C.3     1  UNL1        0.0882
     47 C         137.2372  143.2676  155.4986 C.3     1  UNL1        0.0702
     48 C         137.4081  144.7018  155.0941 C.3     1  UNL1        0.0186
     49 N         135.8765  142.6370  155.4693 N.3     1  UNL1       -0.2974
     50 C         135.7056  141.2028  155.8738 C.3     1  UNL1        0.0702
     51 C         134.3448  140.5722  155.8445 C.3     1  UNL1        0.0186
     52 C         136.8954  140.3990  156.3077 C.3     1  UNL1        0.0882
     53 H         135.5364  142.7151  154.5108 H       1  UNL1        0.1232
     54 C         137.7155  140.3089  161.6699 C.3     1  UNL1        0.0993
     55 N         137.9027  141.5869  162.4325 N.3     1  UNL1       -0.2646
     56 C         137.9302  141.5682  163.9322 C.3     1  UNL1        0.1049
     57 C         138.1174  142.8462  164.6949 C.3     1  UNL1        0.1595
     58 O         138.2771  144.1429  163.9579 O.3     1  UNL1       -0.3508
     59 C         138.2496  144.1616  162.4584 C.3     1  UNL1        0.1595
     60 C         138.0624  142.8836  161.6956 C.3     1  UNL1        0.1049
@<TRIPOS>BOND
     1    22    23    1
     2    23    24   ar
     3    24    25   ar
     4    25    26   ar
     5    26    27    1
     6    26    28   ar
     7    28    18    1
     8    18    19    2
     9    18    20   am
    10    12    20    1
    11    12    13    1
    12    13    14    1
    13    14    15    1
    14    15     8    1
    15     8     9   am
    16     9    10    2
    17     9     1    1
    18     1     2   ar
    19     2     3   ar
    20     3     4    1
    21     3     5   ar
    22     5     6   ar
    23     6     7   ar
    24     7    31    1
    25    31    32    1
    26    32    33   ar
    27    33    34   ar
    28    34    35   ar
    29    35    36   ar
    30    36    38    1
    31    38    39   ar
    32    39    40   ar
    33    40    41   ar
    34    41    44    1
    35    44    45    1
    36    45    46    1
    37    46    47    1
    38    47    48    1
    39    47    49    1
    40    49    50    1
    41    50    51    1
    42    50    52    1
    43    41    42   ar
    44    42    43   ar
    45    43    54    1
    46    54    55    1
    47    55    56    1
    48    56    57    1
    49    57    58    1
    50    58    59    1
    51    59    60    1
    52    36    37   ar
    53    15    16    1
    54    16    17    1
    55    28    29   ar
    56    29    23   ar
    57    17    12    1
    58     7     1   ar
    59    37    32   ar
    60    43    38   ar
    61    60    55    1
    62    52    45    1
    63    27    30    1
    64    20    21    1
    65     8    11    1
    66    49    53    1
@<TRIPOS>MOLECULE
*****
 60 66 0 0 0
SMALL
GASTEIGER

@<TRIPOS>ATOM
      1 C         142.5820  140.8524  166.0955 C.ar    1  UNL1        0.1090
      2 C         142.8031  139.6613  166.9802 C.ar    1  UNL1        0.0405
      3 C         142.3742  139.7044  168.4169 C.ar    1  UNL1        0.1596
      4 F         142.5953  138.5134  169.3017 F       1  UNL1       -0.2025
      5 C         141.7242  140.9384  168.9690 C.ar    1  UNL1        0.1316
      6 N         141.5032  142.1294  168.0843 N.ar    1  UNL1       -0.2073
      7 C         141.9321  142.0864  166.6475 C.ar    1  UNL1        0.2341
      8 N         142.2271  140.0032  163.6660 N.am    1  UNL1       -0.3024
      9 C         143.0109  140.8093  164.6588 C.2     1  UNL1        0.2504
     10 O         144.2237  141.5724  164.2149 O.2     1  UNL1       -0.2700
     11 H         141.4311  139.5024  163.9573 H       1  UNL1        0.1497
     12 C         143.5136  139.8741  159.3558 C.3     1  UNL1        0.0720
     13 C         142.3674  140.7483  159.7704 C.3     1  UNL1        0.0213
     14 C         141.9386  140.7913  161.2071 C.3     1  UNL1        0.0213
     15 C         142.6560  139.9601  162.2292 C.3     1  UNL1        0.0720
     16 C         143.8021  139.0859  161.8145 C.3     1  UNL1        0.0213
     17 C         144.2310  139.0429  160.3778 C.3     1  UNL1        0.0213
     18 C         144.6093  141.0231  157.2992 C.2     1  UNL1        0.2487
     19 O         144.8473  142.2584  158.1163 O.2     1  UNL1       -0.2700
     20 N         143.9425  139.8310  157.9190 N.am    1  UNL1       -0.3024
     21 H         143.7863  139.0203  157.3827 H       1  UNL1        0.1497
     22 C         146.0880  143.4849  152.9687 C.3     1  UNL1        0.0310
     23 C         145.7775  142.2110  153.6972 C.ar    1  UNL1       -0.0215
     24 C         145.8959  140.8940  152.9890 C.ar    1  UNL1       -0.0011
     25 C         145.5855  139.6201  153.7176 C.ar    1  UNL1        0.0364
     26 C         145.1566  139.6631  155.1543 C.ar    1  UNL1        0.1379
     27 O         144.8461  138.3892  155.8828 O.3     1  UNL1       -0.5054
     28 C         145.0382  140.9801  155.8625 C.ar    1  UNL1        0.0866
     29 C         145.3487  142.2540  155.1339 C.ar    1  UNL1        0.0033
     30 H         144.9201  137.5665  155.4404 H       1  UNL1        0.2922
     31 O         141.7110  143.2773  165.7629 O.3     1  UNL1       -0.4360
     32 C         140.4124  143.4358  165.0291 C.ar    1  UNL1        0.1472
     33 C         139.2755  144.1769  165.6679 C.ar    1  UNL1        0.0376
     34 C         137.9769  144.3353  164.9341 C.ar    1  UNL1        0.0031
     35 C         137.8151  143.7527  163.5614 C.ar    1  UNL1        0.0002
     36 C         138.9520  143.0116  162.9225 C.ar    1  UNL1        0.0028
     37 C         140.2507  142.8532  163.6564 C.ar    1  UNL1        0.0375
     38 C         138.7904  142.4289  161.5498 C.ar    1  UNL1       -0.0026
     39 C         139.3184  143.1664  160.3551 C.ar    1  UNL1       -0.0005
     40 C         139.1567  142.5838  158.9823 C.ar    1  UNL1       -0.0029
     41 C         138.4671  141.2637  158.8043 C.ar    1  UNL1       -0.0064
     42 C         137.9391  140.5263  159.9991 C.ar    1  UNL1       -0.0058
     43 C         138.1007  141.1089  161.3718 C.ar    1  UNL1       -0.0064
     44 C         138.3054  140.6811  157.4316 C.3     1  UNL1        0.0992
     45 N         139.4939  140.1155  156.7122 N.3     1  UNL1       -0.2666
     46 C         140.1202  140.8788  155.5829 C.3     1  UNL1        0.0882
     47 C         141.3087  140.3132  154.8634 C.3     1  UNL1        0.0702
     48 C         141.9349  141.0764  153.7342 C.3     1  UNL1        0.0186
     49 N         141.8709  138.9843  155.2733 N.3     1  UNL1       -0.2974
     50 C         141.2447  138.2210  156.4026 C.3     1  UNL1        0.0702
     51 C         141.8069  136.8921  156.8124 C.3     1  UNL1        0.0186
     52 C         140.0562  138.7866  157.1220 C.3     1  UNL1        0.0882
     53 H         142.8452  139.1433  155.5300 H       1  UNL1        0.1232
     54 C         137.5727  140.3714  162.5665 C.3     1  UNL1        0.0993
     55 N         138.4702  139.4464  163.3338 N.3     1  UNL1       -0.2646
     56 C         139.1744  138.3266  162.6264 C.3     1  UNL1        0.1049
     57 C         140.0719  137.4016  163.3937 C.3     1  UNL1        0.1595
     58 O         140.2652  137.5962  164.8684 O.3     1  UNL1       -0.3508
     59 C         139.5610  138.7159  165.5758 C.3     1  UNL1        0.1595
     60 C         138.6635  139.6410  164.8085 C.3     1  UNL1        0.1049
@<TRIPOS>BOND
     1    22    23    1
     2    23    24   ar
     3    24    25   ar
     4    25    26   ar
     5    26    27    1
     6    26    28   ar
     7    28    18    1
     8    18    19    2
     9    18    20   am
    10    12    20    1
    11    12    13    1
    12    13    14    1
    13    14    15    1
    14    15     8    1
    15     8     9   am
    16     9    10    2
    17     9     1    1
    18     1     2   ar
    19     2     3   ar
    20     3     4    1
    21     3     5   ar
    22     5     6   ar
    23     6     7   ar
    24     7    31    1
    25    31    32    1
    26    32    33   ar
    27    33    34   ar
    28    34    35   ar
    29    35    36   ar
    30    36    38    1
    31    38    39   ar
    32    39    40   ar
    33    40    41   ar
    34    41    44    1
    35    44    45    1
    36    45    46    1
    37    46    47    1
    38    47    48    1
    39    47    49    1
    40    49    50    1
    41    50    51    1
    42    50    52    1
    43    41    42   ar
    44    42    43   ar
    45    43    54    1
    46    54    55    1
    47    55    56    1
    48    56    57    1
    49    57    58    1
    50    58    59    1
    51    59    60    1
    52    36    37   ar
    53    15    16    1
    54    16    17    1
    55    28    29   ar
    56    29    23   ar
    57    17    12    1
    58     7     1   ar
    59    37    32   ar
    60    43    38   ar
    61    60    55    1
    62    52    45    1
    63    27    30    1
    64    20    21    1
    65     8    11    1
    66    49    53    1
@<TRIPOS>MOLECULE
*****
 60 66 0 0 0
SMALL
GASTEIGER

@<TRIPOS>ATOM
      1 C         140.1141  142.0635  167.1664 C.ar    1  UNL1        0.1090
      2 C         140.0446  143.3774  167.8867 C.ar    1  UNL1        0.0405
      3 C         140.4646  143.4680  169.3239 C.ar    1  UNL1        0.1596
      4 F         140.3951  144.7819  170.0442 F       1  UNL1       -0.2025
      5 C         140.9541  142.2447  170.0407 C.ar    1  UNL1        0.1316
      6 N         141.0236  140.9308  169.3204 N.ar    1  UNL1       -0.2073
      7 C         140.6036  140.8402  167.8832 C.ar    1  UNL1        0.2341
      8 N         140.4487  142.7318  164.6782 N.am    1  UNL1       -0.3024
      9 C         139.6941  141.9730  165.7293 C.2     1  UNL1        0.2504
     10 O         138.5196  141.1236  165.3432 O.2     1  UNL1       -0.2700
     11 H         141.2196  143.2893  164.9316 H       1  UNL1        0.1497
     12 C         139.1888  142.4603  160.3667 C.3     1  UNL1        0.0720
     13 C         138.3523  143.2299  161.3455 C.3     1  UNL1        0.0213
     14 C         138.7723  143.3204  162.7826 C.3     1  UNL1        0.0213
     15 C         140.0287  142.6413  163.2410 C.3     1  UNL1        0.0720
     16 C         140.8652  141.8717  162.2622 C.3     1  UNL1        0.0213
     17 C         140.4452  141.7812  160.8251 C.3     1  UNL1        0.0213
     18 C         138.0700  141.1408  158.4283 C.2     1  UNL1        0.2487
     19 O         137.7911  140.0023  159.3643 O.2     1  UNL1       -0.2700
     20 N         138.7688  142.3698  158.9295 N.am    1  UNL1       -0.3024
     21 H         138.9518  143.1170  158.3152 H       1  UNL1        0.1497
     22 C         134.3894  140.2888  154.8608 C.3     1  UNL1        0.0310
     23 C         135.8097  140.6243  155.2074 C.ar    1  UNL1       -0.0215
     24 C         136.8100  140.8693  154.1169 C.ar    1  UNL1       -0.0011
     25 C         138.2304  141.2048  154.4635 C.ar    1  UNL1        0.0364
     26 C         138.6503  141.2953  155.9006 C.ar    1  UNL1        0.1379
     27 O         140.0707  141.6308  156.2472 O.3     1  UNL1       -0.5054
     28 C         137.6500  141.0503  156.9911 C.ar    1  UNL1        0.0866
     29 C         136.2297  140.7148  156.6445 C.ar    1  UNL1        0.0033
     30 H         140.6955  141.7838  155.5660 H       1  UNL1        0.2922
     31 O         140.6731  139.5263  167.1630 O.3     1  UNL1       -0.4360
     32 C         141.8817  139.1832  166.3436 C.ar    1  UNL1        0.1472
     33 C         143.1569  138.7776  167.0214 C.ar    1  UNL1        0.0376
     34 C         144.3655  138.4345  166.2020 C.ar    1  UNL1        0.0031
     35 C         144.2991  138.4969  164.7048 C.ar    1  UNL1        0.0002
     36 C         143.0239  138.9025  164.0270 C.ar    1  UNL1        0.0028
     37 C         141.8153  139.2456  164.8464 C.ar    1  UNL1        0.0375
     38 C         142.9574  138.9650  162.5297 C.ar    1  UNL1       -0.0026
     39 C         141.9546  138.1316  161.7881 C.ar    1  UNL1       -0.0005
     40 C         141.8881  138.1941  160.2909 C.ar    1  UNL1       -0.0029
     41 C         142.8243  139.0899  159.5353 C.ar    1  UNL1       -0.0064
     42 C         143.8270  139.9233  160.2769 C.ar    1  UNL1       -0.0058
     43 C         143.8936  139.8608  161.7741 C.ar    1  UNL1       -0.0064
     44 C         142.7577  139.1524  158.0381 C.3     1  UNL1        0.0992
     45 N         142.0937  138.0481  157.2701 N.3     1  UNL1       -0.2666
     46 C         140.7335  138.2614  156.6746 C.3     1  UNL1        0.0882
     47 C         140.0694  137.1572  155.9067 C.3     1  UNL1        0.0702
     48 C         138.7093  137.3705  155.3113 C.3     1  UNL1        0.0186
     49 N         140.7655  135.8397  155.7343 N.3     1  UNL1       -0.2974
     50 C         142.1256  135.6265  156.3297 C.3     1  UNL1        0.0702
     51 C         142.8217  134.3090  156.1572 C.3     1  UNL1        0.0186
     52 C         142.7897  136.7307  157.0976 C.3     1  UNL1        0.0882
     53 H         140.8559  135.6836  154.7303 H       1  UNL1        0.1232
     54 C         144.8963  140.6942  162.5157 C.3     1  UNL1        0.0993
     55 N         144.4970  142.0280  163.0738 N.3     1  UNL1       -0.2646
     56 C         144.2293  143.1783  162.1490 C.3     1  UNL1        0.1049
     57 C         143.8300  144.5121  162.7071 C.3     1  UNL1        0.1595
     58 O         143.6983  144.6956  164.1900 O.3     1  UNL1       -0.3508
     59 C         143.9660  143.5454  165.1148 C.3     1  UNL1        0.1595
     60 C         144.3654  142.2115  164.5567 C.3     1  UNL1        0.1049
@<TRIPOS>BOND
     1    22    23    1
     2    23    24   ar
     3    24    25   ar
     4    25    26   ar
     5    26    27    1
     6    26    28   ar
     7    28    18    1
     8    18    19    2
     9    18    20   am
    10    12    20    1
    11    12    13    1
    12    13    14    1
    13    14    15    1
    14    15     8    1
    15     8     9   am
    16     9    10    2
    17     9     1    1
    18     1     2   ar
    19     2     3   ar
    20     3     4    1
    21     3     5   ar
    22     5     6   ar
    23     6     7   ar
    24     7    31    1
    25    31    32    1
    26    32    33   ar
    27    33    34   ar
    28    34    35   ar
    29    35    36   ar
    30    36    38    1
    31    38    39   ar
    32    39    40   ar
    33    40    41   ar
    34    41    44    1
    35    44    45    1
    36    45    46    1
    37    46    47    1
    38    47    48    1
    39    47    49    1
    40    49    50    1
    41    50    51    1
    42    50    52    1
    43    41    42   ar
    44    42    43   ar
    45    43    54    1
    46    54    55    1
    47    55    56    1
    48    56    57    1
    49    57    58    1
    50    58    59    1
    51    59    60    1
    52    36    37   ar
    53    15    16    1
    54    16    17    1
    55    28    29   ar
    56    29    23   ar
    57    17    12    1
    58     7     1   ar
    59    37    32   ar
    60    43    38   ar
    61    60    55    1
    62    52    45    1
    63    27    30    1
    64    20    21    1
    65     8    11    1
    66    49    53    1
@<TRIPOS>MOLECULE
*****
 60 66 0 0 0
SMALL
GASTEIGER

@<TRIPOS>ATOM
      1 C         140.2604  142.2471  167.5050 C.ar    1  UNL1        0.1090
      2 C         140.2733  143.4758  168.3654 C.ar    1  UNL1        0.0405
      3 C         140.5420  143.3586  169.8364 C.ar    1  UNL1        0.1596
      4 F         140.5549  144.5873  170.6967 F       1  UNL1       -0.2025
      5 C         140.7978  142.0127  170.4472 C.ar    1  UNL1        0.1316
      6 N         140.7849  140.7840  169.5869 N.ar    1  UNL1       -0.2073
      7 C         140.5162  140.9012  168.1158 C.ar    1  UNL1        0.2341
      8 N         140.8695  143.2281  165.1778 N.am    1  UNL1       -0.3024
      9 C         139.9917  142.3643  166.0340 C.2     1  UNL1        0.2504
     10 O         138.8451  141.6178  165.4192 O.2     1  UNL1       -0.2700
     11 H         141.6221  143.7181  165.5813 H       1  UNL1        0.1497
     12 C         140.0635  143.5800  160.7646 C.3     1  UNL1        0.0720
     13 C         139.6607  144.6886  161.6912 C.3     1  UNL1        0.0213
     14 C         139.9294  144.5713  163.1623 C.3     1  UNL1        0.0213
     15 C         140.6008  143.3454  163.7066 C.3     1  UNL1        0.0720
     16 C         141.0036  142.2368  162.7800 C.3     1  UNL1        0.0213
     17 C         140.7349  142.3541  161.3089 C.3     1  UNL1        0.0213
     18 C         140.6475  144.5927  158.4443 C.2     1  UNL1        0.2487
     19 O         141.7689  145.3709  159.0663 O.2     1  UNL1       -0.2700
     20 N         139.7948  143.6973  159.2934 N.am    1  UNL1       -0.3024
     21 H         139.0587  143.1865  158.8852 H       1  UNL1        0.1497
     22 C         137.3080  144.5634  154.4635 C.3     1  UNL1        0.0310
     23 C         138.7090  144.6953  154.9828 C.ar    1  UNL1       -0.0215
     24 C         139.8413  144.9445  154.0311 C.ar    1  UNL1       -0.0011
     25 C         141.2424  145.0764  154.5505 C.ar    1  UNL1        0.0364
     26 C         141.5111  144.9591  156.0215 C.ar    1  UNL1        0.1379
     27 O         142.9121  145.0910  156.5409 O.3     1  UNL1       -0.5054
     28 C         140.3788  144.7100  156.9732 C.ar    1  UNL1        0.0866
     29 C         138.9778  144.5781  156.4539 C.ar    1  UNL1        0.0033
     30 H         143.6195  145.2467  155.9463 H       1  UNL1        0.2922
     31 O         140.5033  139.6725  167.2555 O.3     1  UNL1       -0.4360
     32 C         141.7090  139.3173  166.4370 C.ar    1  UNL1        0.1472
     33 C         142.9793  138.8980  167.1156 C.ar    1  UNL1        0.0376
     34 C         144.1850  138.5428  166.2971 C.ar    1  UNL1        0.0031
     35 C         144.1205  138.6069  164.7999 C.ar    1  UNL1        0.0002
     36 C         142.8503  139.0263  164.1212 C.ar    1  UNL1        0.0028
     37 C         141.6446  139.3815  164.9398 C.ar    1  UNL1        0.0375
     38 C         142.7858  139.0905  162.6239 C.ar    1  UNL1       -0.0026
     39 C         141.7159  138.3410  161.8866 C.ar    1  UNL1       -0.0005
     40 C         141.6514  138.4051  160.3894 C.ar    1  UNL1       -0.0029
     41 C         142.6567  139.2188  159.6295 C.ar    1  UNL1       -0.0064
     42 C         143.7265  139.9682  160.3669 C.ar    1  UNL1       -0.0058
     43 C         143.7911  139.9041  161.8641 C.ar    1  UNL1       -0.0064
     44 C         142.5921  139.2829  158.1322 C.3     1  UNL1        0.0992
     45 N         142.0467  138.1220  157.3546 N.3     1  UNL1       -0.2666
     46 C         140.7114  138.2321  156.6800 C.3     1  UNL1        0.0882
     47 C         140.1660  137.0712  155.9024 C.3     1  UNL1        0.0702
     48 C         138.8308  137.1812  155.2279 C.3     1  UNL1        0.0186
     49 N         140.9559  135.8001  155.7994 N.3     1  UNL1       -0.2974
     50 C         142.2911  135.6900  156.4740 C.3     1  UNL1        0.0702
     51 C         143.0809  134.4189  156.3709 C.3     1  UNL1        0.0186
     52 C         142.8365  136.8509  157.2516 C.3     1  UNL1        0.0882
     53 H         141.1131  135.6308  154.8059 H       1  UNL1        0.1232
     54 C         144.8609  140.6536  162.6015 C.3     1  UNL1        0.0993
     55 N         144.5853  142.0313  163.1266 N.3     1  UNL1       -0.2646
     56 C         144.3430  143.1631  162.1724 C.3     1  UNL1        0.1049
     57 C         144.0675  144.5409  162.6975 C.3     1  UNL1        0.1595
     58 O         144.0342  144.7870  164.1768 O.3     1  UNL1       -0.3508
     59 C         144.2765  143.6553  165.1310 C.3     1  UNL1        0.1595
     60 C         144.5521  142.2774  164.6059 C.3     1  UNL1        0.1049
@<TRIPOS>BOND
     1    22    23    1
     2    23    24   ar
     3    24    25   ar
     4    25    26   ar
     5    26    27    1
     6    26    28   ar
     7    28    18    1
     8    18    19    2
     9    18    20   am
    10    12    20    1
    11    12    13    1
    12    13    14    1
    13    14    15    1
    14    15     8    1
    15     8     9   am
    16     9    10    2
    17     9     1    1
    18     1     2   ar
    19     2     3   ar
    20     3     4    1
    21     3     5   ar
    22     5     6   ar
    23     6     7   ar
    24     7    31    1
    25    31    32    1
    26    32    33   ar
    27    33    34   ar
    28    34    35   ar
    29    35    36   ar
    30    36    38    1
    31    38    39   ar
    32    39    40   ar
    33    40    41   ar
    34    41    44    1
    35    44    45    1
    36    45    46    1
    37    46    47    1
    38    47    48    1
    39    47    49    1
    40    49    50    1
    41    50    51    1
    42    50    52    1
    43    41    42   ar
    44    42    43   ar
    45    43    54    1
    46    54    55    1
    47    55    56    1
    48    56    57    1
    49    57    58    1
    50    58    59    1
    51    59    60    1
    52    36    37   ar
    53    15    16    1
    54    16    17    1
    55    28    29   ar
    56    29    23   ar
    57    17    12    1
    58     7     1   ar
    59    37    32   ar
    60    43    38   ar
    61    60    55    1
    62    52    45    1
    63    27    30    1
    64    20    21    1
    65     8    11    1
    66    49    53    1
@<TRIPOS>MOLECULE
*****
 60 66 0 0 0
SMALL
GASTEIGER

@<TRIPOS>ATOM
      1 C         140.2998  141.7024  167.5628 C.ar    1  UNL1        0.1090
      2 C         140.0999  142.6194  168.7330 C.ar    1  UNL1        0.0405
      3 C         140.3038  142.1095  170.1288 C.ar    1  UNL1        0.1596
      4 F         140.1039  143.0265  171.2990 F       1  UNL1       -0.2025
      5 C         140.7075  140.6826  170.3546 C.ar    1  UNL1        0.1316
      6 N         140.9073  139.7656  169.1845 N.ar    1  UNL1       -0.2073
      7 C         140.7035  140.2755  167.7886 C.ar    1  UNL1        0.2341
      8 N         140.8698  143.4026  165.6829 N.am    1  UNL1       -0.3024
      9 C         140.0959  142.2123  166.1670 C.2     1  UNL1        0.2504
     10 O         139.1183  141.5319  165.2553 O.2     1  UNL1       -0.2700
     11 H         141.5115  143.8491  166.2813 H       1  UNL1        0.1497
     12 C         140.2584  144.9324  161.4953 C.3     1  UNL1        0.0720
     13 C         141.6405  144.6124  161.9826 C.3     1  UNL1        0.0213
     14 C         141.8442  144.1024  163.3784 C.3     1  UNL1        0.0213
     15 C         140.6659  143.9125  164.2870 C.3     1  UNL1        0.0720
     16 C         139.2839  144.2325  163.7998 C.3     1  UNL1        0.0213
     17 C         139.0801  144.7425  162.4039 C.3     1  UNL1        0.0213
     18 C         140.3769  144.5653  158.9260 C.2     1  UNL1        0.2487
     19 O         140.9031  143.1784  159.1484 O.2     1  UNL1       -0.2700
     20 N         140.0546  145.4423  160.0994 N.am    1  UNL1       -0.3024
     21 H         139.7093  146.3527  159.9534 H       1  UNL1        0.1497
     22 C         137.4840  144.8578  154.6196 C.3     1  UNL1        0.0310
     23 C         138.7266  145.2215  155.3769 C.ar    1  UNL1       -0.0215
     24 C         139.7654  146.0951  154.7385 C.ar    1  UNL1       -0.0011
     25 C         141.0080  146.4588  155.4958 C.ar    1  UNL1        0.0364
     26 C         141.2118  145.9489  156.8916 C.ar    1  UNL1        0.1379
     27 O         142.4545  146.3127  157.6490 O.3     1  UNL1       -0.5054
     28 C         140.1731  145.0753  157.5301 C.ar    1  UNL1        0.0866
     29 C         138.9305  144.7116  156.7728 C.ar    1  UNL1        0.0033
     30 H         143.1034  146.8584  157.2501 H       1  UNL1        0.2922
     31 O         140.9033  139.3585  166.6185 O.3     1  UNL1       -0.4360
     32 C         142.2306  139.3106  165.9213 C.ar    1  UNL1        0.1472
     33 C         143.3848  138.5915  166.5543 C.ar    1  UNL1        0.0376
     34 C         144.7120  138.5436  165.8571 C.ar    1  UNL1        0.0031
     35 C         144.8851  139.2147  164.5268 C.ar    1  UNL1        0.0002
     36 C         143.7309  139.9338  163.8938 C.ar    1  UNL1        0.0028
     37 C         142.4036  139.9817  164.5911 C.ar    1  UNL1        0.0375
     38 C         143.9039  140.6050  162.5635 C.ar    1  UNL1       -0.0026
     39 C         144.5142  141.9731  162.4875 C.ar    1  UNL1       -0.0005
     40 C         144.6872  142.6443  161.1573 C.ar    1  UNL1       -0.0029
     41 C         144.2499  141.9474  159.9031 C.ar    1  UNL1       -0.0064
     42 C         143.6397  140.5792  159.9791 C.ar    1  UNL1       -0.0058
     43 C         143.4666  139.9080  161.3093 C.ar    1  UNL1       -0.0064
     44 C         144.4229  142.6186  158.5728 C.3     1  UNL1        0.0992
     45 N         145.1269  141.9034  157.4579 N.3     1  UNL1       -0.2666
     46 C         146.4724  142.3775  156.9942 C.3     1  UNL1        0.0882
     47 C         147.1763  141.6624  155.8793 C.3     1  UNL1        0.0702
     48 C         148.5218  142.1365  155.4157 C.3     1  UNL1        0.0186
     49 N         146.5347  140.4732  155.2280 N.3     1  UNL1       -0.2974
     50 C         145.1893  139.9991  155.6916 C.3     1  UNL1        0.0702
     51 C         144.5477  138.8099  155.0403 C.3     1  UNL1        0.0186
     52 C         144.4853  140.7142  156.8066 C.3     1  UNL1        0.0882
     53 H         147.1787  139.6907  155.3442 H       1  UNL1        0.1232
     54 C         142.8564  138.5399  161.3854 C.3     1  UNL1        0.0993
     55 N         141.3680  138.3875  161.4925 N.3     1  UNL1       -0.2646
     56 C         140.7620  137.7935  162.7295 C.3     1  UNL1        0.1049
     57 C         139.2736  137.6411  162.8366 C.3     1  UNL1        0.1595
     58 O         138.3912  138.0825  161.7068 O.3     1  UNL1       -0.3508
     59 C         138.9972  138.6764  160.4699 C.3     1  UNL1        0.1595
     60 C         140.4856  138.8289  160.3627 C.3     1  UNL1        0.1049
@<TRIPOS>BOND
     1    22    23    1
     2    23    24   ar
     3    24    25   ar
     4    25    26   ar
     5    26    27    1
     6    26    28   ar
     7    28    18    1
     8    18    19    2
     9    18    20   am
    10    12    20    1
    11    12    13    1
    12    13    14    1
    13    14    15    1
    14    15     8    1
    15     8     9   am
    16     9    10    2
    17     9     1    1
    18     1     2   ar
    19     2     3   ar
    20     3     4    1
    21     3     5   ar
    22     5     6   ar
    23     6     7   ar
    24     7    31    1
    25    31    32    1
    26    32    33   ar
    27    33    34   ar
    28    34    35   ar
    29    35    36   ar
    30    36    38    1
    31    38    39   ar
    32    39    40   ar
    33    40    41   ar
    34    41    44    1
    35    44    45    1
    36    45    46    1
    37    46    47    1
    38    47    48    1
    39    47    49    1
    40    49    50    1
    41    50    51    1
    42    50    52    1
    43    41    42   ar
    44    42    43   ar
    45    43    54    1
    46    54    55    1
    47    55    56    1
    48    56    57    1
    49    57    58    1
    50    58    59    1
    51    59    60    1
    52    36    37   ar
    53    15    16    1
    54    16    17    1
    55    28    29   ar
    56    29    23   ar
    57    17    12    1
    58     7     1   ar
    59    37    32   ar
    60    43    38   ar
    61    60    55    1
    62    52    45    1
    63    27    30    1
    64    20    21    1
    65     8    11    1
    66    49    53    1
