@<TRIPOS>MOLECULE
*****
 34 38 0 0 0
SMALL
GASTEIGER

@<TRIPOS>ATOM
      1 C         142.8095  141.8116  163.2119 C.ar    1  UNL1        0.1074
      2 C         143.9754  140.8766  163.3395 C.ar    1  UNL1        0.0588
      3 S         144.0153  140.3757  164.7528 S.2     1  UNL1       -0.0508
      4 C         142.8740  141.0011  165.4986 C.ar    1  UNL1        0.1646
      5 N         142.1288  141.8885  164.5463 N.ar    1  UNL1       -0.2224
      6 C         140.8377  144.2381  160.7677 C.ar    1  UNL1        0.2416
      7 N         141.2505  143.5082  162.0113 N.ar    1  UNL1       -0.2089
      8 C         142.3967  142.5416  161.9682 C.ar    1  UNL1        0.1026
      9 C         143.1301  142.3049  160.6812 C.ar    1  UNL1        0.0224
     10 C         142.7174  143.0348  159.4375 C.ar    1  UNL1        0.0239
     11 C         141.5712  144.0014  159.4807 C.ar    1  UNL1        0.1189
     12 N         141.1584  144.7314  158.2370 N.ar    1  UNL1       -0.2826
     13 C         141.9008  145.8639  157.5920 C.ar    1  UNL1        0.1826
     14 N         141.1319  146.2894  156.3763 N.ar    1  UNL1       -0.2280
     15 C         139.9144  145.4198  156.2700 C.ar    1  UNL1        0.0786
     16 C         138.8647  145.4991  155.2013 C.3     1  UNL1        0.0538
     17 C         139.9307  144.4569  157.4200 C.ar    1  UNL1        0.0963
     18 C         139.6864  146.3175  161.8166 C.3     1  UNL1        0.2543
     19 O         139.6915  145.2048  160.8108 O.3     1  UNL1       -0.4551
     20 N         142.5371  140.7782  166.9432 N.pl3   1  UNL1       -0.2786
     21 H         143.2216  140.9218  167.6362 H       1  UNL1        0.1555
     22 C         141.1574  140.3365  167.3321 C.ar    1  UNL1        0.1278
     23 C         140.2301  139.5039  166.4972 C.ar    1  UNL1        0.0244
     24 C         138.9623  139.3027  167.2732 C.ar    1  UNL1        0.0773
     25 N         139.1059  140.0110  168.5876 N.ar    1  UNL1       -0.1726
     26 N         140.4625  140.6500  168.6240 N.ar    1  UNL1       -0.2295
     27 C         138.0351  138.4700  166.4384 C.3     1  UNL1        0.0477
     28 C         138.7299  138.1566  165.1465 C.3     1  UNL1        0.0112
     29 C         140.0865  138.7955  165.1828 C.3     1  UNL1        0.0308
     30 C         141.0255  141.4601  169.7539 C.3     1  UNL1        0.2315
     31 C         140.8234  142.9462  169.7848 C.3     1  UNL1        0.4200
     32 F         140.6212  144.4321  169.8158 F       1  UNL1       -0.1679
     33 F         142.1997  143.1450  169.2227 F       1  UNL1       -0.1679
     34 F         139.4470  142.7472  170.3470 F       1  UNL1       -0.1679
@<TRIPOS>BOND
     1    18    19    1
     2    19     6    1
     3     6     7   ar
     4     7     8   ar
     5     8     1    1
     6     1     2   ar
     7     2     3   ar
     8     3     4   ar
     9     4    20    1
    10    20    22    1
    11    22    23   ar
    12    23    24   ar
    13    24    25   ar
    14    25    26   ar
    15    26    30    1
    16    30    31    1
    17    31    32    1
    18    31    33    1
    19    31    34    1
    20    24    27    1
    21    27    28    1
    22    28    29    1
    23     4     5   ar
    24     8     9   ar
    25     9    10   ar
    26    10    11   ar
    27    11    12    1
    28    12    13   ar
    29    13    14   ar
    30    14    15   ar
    31    15    16    1
    32    15    17   ar
    33    11     6   ar
    34    17    12   ar
    35     5     1   ar
    36    26    22   ar
    37    29    23    1
    38    20    21    1
@<TRIPOS>MOLECULE
*****
 34 38 0 0 0
SMALL
GASTEIGER

@<TRIPOS>ATOM
      1 C         141.8078  142.7391  163.1263 C.ar    1  UNL1        0.1074
      2 C         142.9839  141.8591  163.4301 C.ar    1  UNL1        0.0588
      3 S         142.9935  141.5915  164.9060 S.2     1  UNL1       -0.0508
      4 C         141.8234  142.3062  165.5143 C.ar    1  UNL1        0.1646
      5 N         141.0907  143.0155  164.4144 N.ar    1  UNL1       -0.2224
      6 C         142.0709  143.9512  159.3565 C.ar    1  UNL1        0.2416
      7 N         142.4612  143.4376  160.7107 N.ar    1  UNL1       -0.2089
      8 C         141.4175  143.2527  161.7721 C.ar    1  UNL1        0.1026
      9 C         139.9835  143.5814  161.4793 C.ar    1  UNL1        0.0224
     10 C         139.5932  144.0950  160.1251 C.ar    1  UNL1        0.0239
     11 C         140.6368  144.2799  159.0637 C.ar    1  UNL1        0.1189
     12 N         140.2465  144.7935  157.7095 N.ar    1  UNL1       -0.2826
     13 C         139.9051  143.9552  156.5134 C.ar    1  UNL1        0.1826
     14 N         139.5767  144.8791  155.3783 N.ar    1  UNL1       -0.2280
     15 C         139.7151  146.2884  155.8729 C.ar    1  UNL1        0.0786
     16 C         139.4806  147.5324  155.0680 C.3     1  UNL1        0.0538
     17 C         140.1290  146.2355  157.3136 C.ar    1  UNL1        0.0963
     18 C         143.6341  142.9491  157.5394 C.3     1  UNL1        0.2543
     19 O         143.1145  144.1361  158.2950 O.3     1  UNL1       -0.4551
     20 N         141.4514  142.3108  166.9675 N.pl3   1  UNL1       -0.2786
     21 H         141.8496  142.9750  167.5755 H       1  UNL1        0.1555
     22 C         140.4727  141.3036  167.4943 C.ar    1  UNL1        0.1278
     23 C         139.6653  140.3444  166.6709 C.ar    1  UNL1        0.0244
     24 C         138.8231  139.5266  167.6047 C.ar    1  UNL1        0.0773
     25 N         139.1100  139.9805  169.0054 N.ar    1  UNL1       -0.1726
     26 N         140.1295  141.0787  168.9372 N.ar    1  UNL1       -0.2295
     27 C         138.0158  138.5674  166.7813 C.3     1  UNL1        0.0477
     28 C         138.3590  138.7923  165.3385 C.3     1  UNL1        0.0112
     29 C         139.3785  139.8906  165.2703 C.3     1  UNL1        0.0308
     30 C         140.7047  141.8215  170.1064 C.3     1  UNL1        0.2315
     31 C         140.4995  143.3024  170.2288 C.3     1  UNL1        0.4200
     32 F         140.2942  144.7833  170.3511 F       1  UNL1       -0.1679
     33 F         141.8819  143.5380  169.6965 F       1  UNL1       -0.1679
     34 F         139.1170  143.0668  170.7610 F       1  UNL1       -0.1679
@<TRIPOS>BOND
     1    18    19    1
     2    19     6    1
     3     6     7   ar
     4     7     8   ar
     5     8     1    1
     6     1     2   ar
     7     2     3   ar
     8     3     4   ar
     9     4    20    1
    10    20    22    1
    11    22    23   ar
    12    23    24   ar
    13    24    25   ar
    14    25    26   ar
    15    26    30    1
    16    30    31    1
    17    31    32    1
    18    31    33    1
    19    31    34    1
    20    24    27    1
    21    27    28    1
    22    28    29    1
    23     4     5   ar
    24     8     9   ar
    25     9    10   ar
    26    10    11   ar
    27    11    12    1
    28    12    13   ar
    29    13    14   ar
    30    14    15   ar
    31    15    16    1
    32    15    17   ar
    33    11     6   ar
    34    17    12   ar
    35     5     1   ar
    36    26    22   ar
    37    29    23    1
    38    20    21    1
@<TRIPOS>MOLECULE
*****
 34 38 0 0 0
SMALL
GASTEIGER

@<TRIPOS>ATOM
      1 C         143.3868  142.3669  162.4823 C.ar    1  UNL1        0.1074
      2 C         144.8494  142.2731  162.8015 C.ar    1  UNL1        0.0588
      3 S         144.9943  141.5337  164.0985 S.2     1  UNL1       -0.0508
      4 C         143.6212  141.1706  164.5809 C.ar    1  UNL1        0.1646
      5 N         142.6277  141.6855  163.5821 N.ar    1  UNL1       -0.2224
      6 C         141.0430  144.6398  160.2261 C.ar    1  UNL1        0.2416
      7 N         141.6415  143.9804  161.4331 N.ar    1  UNL1       -0.2089
      8 C         142.7883  143.0264  161.2753 C.ar    1  UNL1        0.1026
      9 C         143.3366  142.7319  159.9104 C.ar    1  UNL1        0.0224
     10 C         142.7381  143.3914  158.7034 C.ar    1  UNL1        0.0239
     11 C         141.5913  144.3453  158.8612 C.ar    1  UNL1        0.1189
     12 N         140.9928  145.0048  157.6542 N.ar    1  UNL1       -0.2826
     13 C         141.6387  146.0723  156.8216 C.ar    1  UNL1        0.1826
     14 N         140.6884  146.4398  155.7207 N.ar    1  UNL1       -0.2280
     15 C         139.4553  145.5994  155.8729 C.ar    1  UNL1        0.0786
     16 C         138.2463  145.6389  154.9859 C.3     1  UNL1        0.0538
     17 C         139.6435  144.7125  157.0679 C.ar    1  UNL1        0.0963
     18 C         139.6951  146.3163  161.6828 C.3     1  UNL1        0.2543
     19 O         139.8962  145.5938  160.3838 O.3     1  UNL1       -0.4551
     20 N         143.2983  140.4236  165.8410 N.pl3   1  UNL1       -0.2786
     21 H         143.8126  139.6195  166.0822 H       1  UNL1        0.1555
     22 C         142.1917  140.9018  166.7337 C.ar    1  UNL1        0.1278
     23 C         142.3591  141.6669  168.0130 C.ar    1  UNL1        0.0244
     24 C         140.9942  141.9368  168.5737 C.ar    1  UNL1        0.0773
     25 N         139.9833  141.3384  167.6410 N.ar    1  UNL1       -0.1726
     26 N         140.7233  140.6987  166.5037 N.ar    1  UNL1       -0.2295
     27 C         141.1616  142.7019  169.8530 C.3     1  UNL1        0.0477
     28 C         142.6299  142.9049  170.0828 C.3     1  UNL1        0.0112
     29 C         143.3700  142.2653  168.9457 C.3     1  UNL1        0.0308
     30 C         140.1038  139.9820  165.3409 C.3     1  UNL1        0.2315
     31 C         139.3724  138.6906  165.5591 C.3     1  UNL1        0.4200
     32 F         138.6410  137.3993  165.7772 F       1  UNL1       -0.1679
     33 F         138.1079  139.4519  165.8262 F       1  UNL1       -0.1679
     34 F         140.6369  137.9293  165.2919 F       1  UNL1       -0.1679
@<TRIPOS>BOND
     1    18    19    1
     2    19     6    1
     3     6     7   ar
     4     7     8   ar
     5     8     1    1
     6     1     2   ar
     7     2     3   ar
     8     3     4   ar
     9     4    20    1
    10    20    22    1
    11    22    23   ar
    12    23    24   ar
    13    24    25   ar
    14    25    26   ar
    15    26    30    1
    16    30    31    1
    17    31    32    1
    18    31    33    1
    19    31    34    1
    20    24    27    1
    21    27    28    1
    22    28    29    1
    23     4     5   ar
    24     8     9   ar
    25     9    10   ar
    26    10    11   ar
    27    11    12    1
    28    12    13   ar
    29    13    14   ar
    30    14    15   ar
    31    15    16    1
    32    15    17   ar
    33    11     6   ar
    34    17    12   ar
    35     5     1   ar
    36    26    22   ar
    37    29    23    1
    38    20    21    1
@<TRIPOS>MOLECULE
*****
 34 38 0 0 0
SMALL
GASTEIGER

@<TRIPOS>ATOM
      1 C         142.7783  138.5050  158.6679 C.ar    1  UNL1        0.1074
      2 C         142.2016  139.8891  158.6284 C.ar    1  UNL1        0.0588
      3 S         142.7751  140.6632  159.7781 S.2     1  UNL1       -0.0508
      4 C         143.7062  139.7574  160.5282 C.ar    1  UNL1        0.1646
      5 N         143.7082  138.4237  159.8421 N.ar    1  UNL1       -0.2224
      6 C         143.0707  135.0852  156.6756 C.ar    1  UNL1        0.2416
      7 N         143.3711  136.1934  157.6408 N.ar    1  UNL1       -0.2089
      8 C         142.4779  137.3968  157.7027 C.ar    1  UNL1        0.1026
      9 C         141.2841  137.4921  156.7993 C.ar    1  UNL1        0.0224
     10 C         140.9837  136.3839  155.8341 C.ar    1  UNL1        0.0239
     11 C         141.8769  135.1804  155.7722 C.ar    1  UNL1        0.1189
     12 N         141.5765  134.0722  154.8070 N.ar    1  UNL1       -0.2826
     13 C         141.7399  134.1322  153.3172 C.ar    1  UNL1        0.1826
     14 N         141.3243  132.8065  152.7516 N.ar    1  UNL1       -0.2280
     15 C         140.9040  131.9273  153.8919 C.ar    1  UNL1        0.0786
     16 C         140.4139  130.5139  153.7813 C.3     1  UNL1        0.0538
     17 C         141.0599  132.7095  155.1622 C.ar    1  UNL1        0.0963
     18 C         144.4764  133.2623  157.8800 C.3     1  UNL1        0.2543
     19 O         143.9639  133.8817  156.6137 O.3     1  UNL1       -0.4551
     20 N         144.4966  140.1216  161.7500 N.pl3   1  UNL1       -0.2786
     21 H         145.4423  140.3816  161.6651 H       1  UNL1        0.1555
     22 C         143.8460  140.0896  163.1012 C.ar    1  UNL1        0.1278
     23 C         142.8434  139.0788  163.5733 C.ar    1  UNL1        0.0244
     24 C         142.4615  139.4273  164.9814 C.ar    1  UNL1        0.0773
     25 N         143.2281  140.6536  165.3796 N.ar    1  UNL1       -0.1726
     26 N         144.0838  141.0630  164.2175 N.ar    1  UNL1       -0.2295
     27 C         141.4589  138.4164  165.4535 C.3     1  UNL1        0.0477
     28 C         141.2211  137.4432  164.3372 C.3     1  UNL1        0.0112
     29 C         142.0767  137.8525  163.1751 C.3     1  UNL1        0.0308
     30 C         145.0139  142.2390  164.1787 C.3     1  UNL1        0.2315
     31 C         144.4672  143.6316  164.2880 C.3     1  UNL1        0.4200
     32 F         143.9205  145.0242  164.3972 F       1  UNL1       -0.1679
     33 F         144.8684  143.6758  165.7326 F       1  UNL1       -0.1679
     34 F         144.0660  143.5874  162.8433 F       1  UNL1       -0.1679
@<TRIPOS>BOND
     1    18    19    1
     2    19     6    1
     3     6     7   ar
     4     7     8   ar
     5     8     1    1
     6     1     2   ar
     7     2     3   ar
     8     3     4   ar
     9     4    20    1
    10    20    22    1
    11    22    23   ar
    12    23    24   ar
    13    24    25   ar
    14    25    26   ar
    15    26    30    1
    16    30    31    1
    17    31    32    1
    18    31    33    1
    19    31    34    1
    20    24    27    1
    21    27    28    1
    22    28    29    1
    23     4     5   ar
    24     8     9   ar
    25     9    10   ar
    26    10    11   ar
    27    11    12    1
    28    12    13   ar
    29    13    14   ar
    30    14    15   ar
    31    15    16    1
    32    15    17   ar
    33    11     6   ar
    34    17    12   ar
    35     5     1   ar
    36    26    22   ar
    37    29    23    1
    38    20    21    1
@<TRIPOS>MOLECULE
*****
 34 38 0 0 0
SMALL
GASTEIGER

@<TRIPOS>ATOM
      1 C         143.0381  139.9421  161.2144 C.ar    1  UNL1        0.1074
      2 C         143.5711  138.7921  162.0164 C.ar    1  UNL1        0.0588
      3 S         142.6498  138.5715  163.1794 S.2     1  UNL1       -0.0508
      4 C         141.5473  139.5852  163.0961 C.ar    1  UNL1        0.1646
      5 N         141.7873  140.4322  161.8818 N.ar    1  UNL1       -0.2224
      6 C         144.4565  140.1850  157.5160 C.ar    1  UNL1        0.2416
      7 N         143.8460  139.6236  158.7658 N.ar    1  UNL1       -0.2089
      8 C         143.6486  140.5034  159.9646 C.ar    1  UNL1        0.1026
      9 C         144.0616  141.9446  159.9135 C.ar    1  UNL1        0.0224
     10 C         144.6722  142.5059  158.6636 C.ar    1  UNL1        0.0239
     11 C         144.8696  141.6261  157.4648 C.ar    1  UNL1        0.1189
     12 N         145.4801  142.1875  156.2150 N.ar    1  UNL1       -0.2826
     13 C         144.7360  142.8292  155.0816 C.ar    1  UNL1        0.1826
     14 N         145.7380  143.2439  154.0452 N.ar    1  UNL1       -0.2280
     15 C         147.1012  142.8586  154.5381 C.ar    1  UNL1        0.0786
     16 C         148.3965  143.0862  153.8166 C.3     1  UNL1        0.0538
     17 C         146.9419  142.2057  155.8790 C.ar    1  UNL1        0.0963
     18 C         143.5507  139.1467  155.3134 C.3     1  UNL1        0.2543
     19 O         144.6540  139.3052  156.3172 O.3     1  UNL1       -0.4551
     20 N         140.4054  139.7269  164.0584 N.pl3   1  UNL1       -0.2786
     21 H         140.4032  139.2140  164.8987 H       1  UNL1        0.1555
     22 C         139.2667  140.6500  163.7402 C.ar    1  UNL1        0.1278
     23 C         139.0995  142.0515  164.2480 C.ar    1  UNL1        0.0244
     24 C         137.8248  142.6015  163.6800 C.ar    1  UNL1        0.0773
     25 N         137.2041  141.5398  162.8211 N.ar    1  UNL1       -0.1726
     26 N         138.0952  140.3337  162.8582 N.ar    1  UNL1       -0.2295
     27 C         137.6576  144.0030  164.1878 C.3     1  UNL1        0.0477
     28 C         138.8291  144.3192  165.0696 C.3     1  UNL1        0.0112
     29 C         139.7202  143.1132  165.1069 C.3     1  UNL1        0.0308
     30 C         137.8568  139.0389  162.1398 C.3     1  UNL1        0.2315
     31 C         138.6873  138.6812  160.9428 C.3     1  UNL1        0.4200
     32 F         139.5176  138.3237  159.7459 F       1  UNL1       -0.1679
     33 F         139.3617  137.6000  161.7339 F       1  UNL1       -0.1679
     34 F         138.0127  139.7626  160.1518 F       1  UNL1       -0.1679
@<TRIPOS>BOND
     1    18    19    1
     2    19     6    1
     3     6     7   ar
     4     7     8   ar
     5     8     1    1
     6     1     2   ar
     7     2     3   ar
     8     3     4   ar
     9     4    20    1
    10    20    22    1
    11    22    23   ar
    12    23    24   ar
    13    24    25   ar
    14    25    26   ar
    15    26    30    1
    16    30    31    1
    17    31    32    1
    18    31    33    1
    19    31    34    1
    20    24    27    1
    21    27    28    1
    22    28    29    1
    23     4     5   ar
    24     8     9   ar
    25     9    10   ar
    26    10    11   ar
    27    11    12    1
    28    12    13   ar
    29    13    14   ar
    30    14    15   ar
    31    15    16    1
    32    15    17   ar
    33    11     6   ar
    34    17    12   ar
    35     5     1   ar
    36    26    22   ar
    37    29    23    1
    38    20    21    1
@<TRIPOS>MOLECULE
*****
 34 38 0 0 0
SMALL
GASTEIGER

@<TRIPOS>ATOM
      1 C         141.7596  143.0460  163.1633 C.ar    1  UNL1        0.1074
      2 C         140.5724  143.9534  163.2944 C.ar    1  UNL1        0.0588
      3 S         140.1761  143.9922  164.7406 S.2     1  UNL1       -0.0508
      4 C         141.1184  143.1088  165.5033 C.ar    1  UNL1        0.1646
      5 N         142.0970  142.5240  164.5285 N.ar    1  UNL1       -0.2224
      6 C         143.0860  143.3008  159.4316 C.ar    1  UNL1        0.2416
      7 N         142.3632  143.6287  160.7044 N.ar    1  UNL1       -0.2089
      8 C         142.4824  142.7182  161.8905 C.ar    1  UNL1        0.1026
      9 C         143.3245  141.4798  161.8038 C.ar    1  UNL1        0.0224
     10 C         144.0473  141.1519  160.5310 C.ar    1  UNL1        0.0239
     11 C         143.9281  142.0624  159.3449 C.ar    1  UNL1        0.1189
     12 N         144.6509  141.7346  158.0721 N.ar    1  UNL1       -0.2826
     13 C         145.8879  142.4118  157.5611 C.ar    1  UNL1        0.1826
     14 N         146.2651  141.7677  156.2601 N.ar    1  UNL1       -0.2280
     15 C         145.2613  140.6924  155.9670 C.ar    1  UNL1        0.0786
     16 C         145.2560  139.7951  154.7649 C.3     1  UNL1        0.0538
     17 C         144.2637  140.6719  157.0868 C.ar    1  UNL1        0.0963
     18 C         141.8472  145.2069  158.1739 C.3     1  UNL1        0.2543
     19 O         142.9668  144.2113  158.2455 O.3     1  UNL1       -0.4551
     20 N         141.0875  142.8547  166.9813 N.pl3   1  UNL1       -0.2786
     21 H         141.5095  143.4942  167.5997 H       1  UNL1        0.1555
     22 C         140.4137  141.6264  167.5173 C.ar    1  UNL1        0.1278
     23 C         139.5022  140.7150  166.7501 C.ar    1  UNL1        0.0244
     24 C         139.0582  139.6192  167.6732 C.ar    1  UNL1        0.0773
     25 N         139.6952  139.8533  169.0108 N.ar    1  UNL1       -0.1726
     26 N         140.5330  141.0939  168.9145 N.ar    1  UNL1       -0.2295
     27 C         138.1467  138.7078  166.9060 C.3     1  UNL1        0.0477
     28 C         138.0274  139.2403  165.5088 C.3     1  UNL1        0.0112
     29 C         138.8651  140.4809  165.4125 C.3     1  UNL1        0.0308
     30 C         141.3471  141.6961  170.0210 C.3     1  UNL1        0.2315
     31 C         142.7936  142.0230  169.7956 C.3     1  UNL1        0.4200
     32 F         144.2401  142.3500  169.5702 F       1  UNL1       -0.1679
     33 F         143.0658  140.5869  169.4593 F       1  UNL1       -0.1679
     34 F         142.5214  143.4592  170.1320 F       1  UNL1       -0.1679
@<TRIPOS>BOND
     1    18    19    1
     2    19     6    1
     3     6     7   ar
     4     7     8   ar
     5     8     1    1
     6     1     2   ar
     7     2     3   ar
     8     3     4   ar
     9     4    20    1
    10    20    22    1
    11    22    23   ar
    12    23    24   ar
    13    24    25   ar
    14    25    26   ar
    15    26    30    1
    16    30    31    1
    17    31    32    1
    18    31    33    1
    19    31    34    1
    20    24    27    1
    21    27    28    1
    22    28    29    1
    23     4     5   ar
    24     8     9   ar
    25     9    10   ar
    26    10    11   ar
    27    11    12    1
    28    12    13   ar
    29    13    14   ar
    30    14    15   ar
    31    15    16    1
    32    15    17   ar
    33    11     6   ar
    34    17    12   ar
    35     5     1   ar
    36    26    22   ar
    37    29    23    1
    38    20    21    1
@<TRIPOS>MOLECULE
*****
 34 38 0 0 0
SMALL
GASTEIGER

@<TRIPOS>ATOM
      1 C         141.9787  142.0006  158.4561 C.ar    1  UNL1        0.1074
      2 C         141.8203  143.1865  157.5513 C.ar    1  UNL1        0.0588
      3 S         141.7951  144.4201  158.4041 S.2     1  UNL1       -0.0508
      4 C         141.9378  143.9968  159.8360 C.ar    1  UNL1        0.1646
      5 N         142.0513  142.5015  159.8681 N.ar    1  UNL1       -0.2224
      6 C         143.2685  138.6604  156.7447 C.ar    1  UNL1        0.2416
      7 N         143.1955  140.0951  157.1762 N.ar    1  UNL1       -0.2089
      8 C         142.0516  140.5659  158.0246 C.ar    1  UNL1        0.1026
      9 C         140.9806  139.6019  158.4416 C.ar    1  UNL1        0.0224
     10 C         141.0535  138.1672  158.0101 C.ar    1  UNL1        0.0239
     11 C         142.1974  137.6964  157.1617 C.ar    1  UNL1        0.1189
     12 N         142.2704  136.2616  156.7302 N.ar    1  UNL1       -0.2826
     13 C         143.1764  135.2132  157.3045 C.ar    1  UNL1        0.1826
     14 N         142.9160  133.9271  156.5779 N.ar    1  UNL1       -0.2280
     15 C         141.8491  134.1806  155.5545 C.ar    1  UNL1        0.0786
     16 C         141.2810  133.1689  154.6038 C.3     1  UNL1        0.0538
     17 C         141.4501  135.6234  155.6486 C.ar    1  UNL1        0.0963
     18 C         145.0190  139.1089  154.8781 C.3     1  UNL1        0.2543
     19 O         144.4124  138.1895  155.8963 O.3     1  UNL1       -0.4551
     20 N         141.9628  144.9087  161.0268 N.pl3   1  UNL1       -0.2786
     21 H         141.8875  145.8824  160.9028 H       1  UNL1        0.1555
     22 C         142.1023  144.3369  162.4065 C.ar    1  UNL1        0.1278
     23 C         143.2809  143.5693  162.9278 C.ar    1  UNL1        0.0244
     24 C         142.9948  143.1903  164.3507 C.ar    1  UNL1        0.0773
     25 N         141.6393  143.7236  164.7088 N.ar    1  UNL1       -0.1726
     26 N         141.0876  144.4322  163.5072 N.ar    1  UNL1       -0.2295
     27 C         144.1734  142.4228  164.8719 C.3     1  UNL1        0.0477
     28 C         145.1880  142.3274  163.7713 C.3     1  UNL1        0.0112
     29 C         144.6364  143.0360  162.5697 C.3     1  UNL1        0.0308
     30 C         139.7554  145.1160  163.4215 C.3     1  UNL1        0.2315
     31 C         138.5638  144.5269  164.1165 C.3     1  UNL1        0.4200
     32 F         137.3721  143.9378  164.8115 F       1  UNL1       -0.1679
     33 F         138.9156  145.2848  165.3621 F       1  UNL1       -0.1679
     34 F         138.2119  143.7691  162.8708 F       1  UNL1       -0.1679
@<TRIPOS>BOND
     1    18    19    1
     2    19     6    1
     3     6     7   ar
     4     7     8   ar
     5     8     1    1
     6     1     2   ar
     7     2     3   ar
     8     3     4   ar
     9     4    20    1
    10    20    22    1
    11    22    23   ar
    12    23    24   ar
    13    24    25   ar
    14    25    26   ar
    15    26    30    1
    16    30    31    1
    17    31    32    1
    18    31    33    1
    19    31    34    1
    20    24    27    1
    21    27    28    1
    22    28    29    1
    23     4     5   ar
    24     8     9   ar
    25     9    10   ar
    26    10    11   ar
    27    11    12    1
    28    12    13   ar
    29    13    14   ar
    30    14    15   ar
    31    15    16    1
    32    15    17   ar
    33    11     6   ar
    34    17    12   ar
    35     5     1   ar
    36    26    22   ar
    37    29    23    1
    38    20    21    1
@<TRIPOS>MOLECULE
*****
 34 38 0 0 0
SMALL
GASTEIGER

@<TRIPOS>ATOM
      1 C         141.3341  143.4770  162.5440 C.ar    1  UNL1        0.1074
      2 C         140.4636  144.6984  162.5630 C.ar    1  UNL1        0.0588
      3 S         139.8679  144.8217  163.9341 S.2     1  UNL1       -0.0508
      4 C         140.3702  143.6765  164.7625 C.ar    1  UNL1        0.1646
      5 N         141.2764  142.8455  163.9034 N.ar    1  UNL1       -0.2224
      6 C         143.6109  141.1479  160.2766 C.ar    1  UNL1        0.2416
      7 N         142.8213  141.6496  161.4491 N.ar    1  UNL1       -0.2089
      8 C         142.1238  142.9753  161.3715 C.ar    1  UNL1        0.1026
      9 C         142.2159  143.7993  160.1214 C.ar    1  UNL1        0.0224
     10 C         143.0055  143.2976  158.9489 C.ar    1  UNL1        0.0239
     11 C         143.7030  141.9719  159.0265 C.ar    1  UNL1        0.1189
     12 N         144.4926  141.4701  157.8540 N.ar    1  UNL1       -0.2826
     13 C         144.2215  140.2135  157.0812 C.ar    1  UNL1        0.1826
     14 N         145.2533  140.1037  155.9980 N.ar    1  UNL1       -0.2280
     15 C         146.1622  141.2925  156.1014 C.ar    1  UNL1        0.0786
     16 C         147.3353  141.5854  155.2136 C.3     1  UNL1        0.0538
     17 C         145.6921  142.1370  157.2484 C.ar    1  UNL1        0.0963
     18 C         143.7682  138.7414  161.2429 C.3     1  UNL1        0.2543
     19 O         144.3084  139.8222  160.3541 O.3     1  UNL1       -0.4551
     20 N         140.0267  143.4092  166.1980 N.pl3   1  UNL1       -0.2786
     21 H         139.9001  144.1602  166.8219 H       1  UNL1        0.1555
     22 C         139.8760  141.9978  166.6828 C.ar    1  UNL1        0.1278
     23 C         139.2863  140.8573  165.9073 C.ar    1  UNL1        0.0244
     24 C         139.3344  139.6336  166.7735 C.ar    1  UNL1        0.0773
     25 N         139.9540  140.0178  168.0844 N.ar    1  UNL1       -0.1726
     26 N         140.2888  141.4790  168.0285 N.ar    1  UNL1       -0.2295
     27 C         138.7447  138.4931  165.9980 C.3     1  UNL1        0.0477
     28 C         138.3320  139.0120  164.6524 C.3     1  UNL1        0.0112
     29 C         138.6667  140.4731  164.5964 C.3     1  UNL1        0.0308
     30 C         140.9245  142.2805  169.1253 C.3     1  UNL1        0.2315
     31 C         140.0658  143.0061  170.1185 C.3     1  UNL1        0.4200
     32 F         139.2071  143.7316  171.1116 F       1  UNL1       -0.1679
     33 F         140.9493  144.2125  170.0010 F       1  UNL1       -0.1679
     34 F         139.1823  141.7996  170.2360 F       1  UNL1       -0.1679
@<TRIPOS>BOND
     1    18    19    1
     2    19     6    1
     3     6     7   ar
     4     7     8   ar
     5     8     1    1
     6     1     2   ar
     7     2     3   ar
     8     3     4   ar
     9     4    20    1
    10    20    22    1
    11    22    23   ar
    12    23    24   ar
    13    24    25   ar
    14    25    26   ar
    15    26    30    1
    16    30    31    1
    17    31    32    1
    18    31    33    1
    19    31    34    1
    20    24    27    1
    21    27    28    1
    22    28    29    1
    23     4     5   ar
    24     8     9   ar
    25     9    10   ar
    26    10    11   ar
    27    11    12    1
    28    12    13   ar
    29    13    14   ar
    30    14    15   ar
    31    15    16    1
    32    15    17   ar
    33    11     6   ar
    34    17    12   ar
    35     5     1   ar
    36    26    22   ar
    37    29    23    1
    38    20    21    1
@<TRIPOS>MOLECULE
*****
 34 38 0 0 0
SMALL
GASTEIGER

@<TRIPOS>ATOM
      1 C         141.7579  142.1740  158.5439 C.ar    1  UNL1        0.1074
      2 C         141.3287  143.3189  157.6750 C.ar    1  UNL1        0.0588
      3 S         141.3459  144.5656  158.5090 S.2     1  UNL1       -0.0508
      4 C         141.7857  144.1911  159.8933 C.ar    1  UNL1        0.1646
      5 N         142.0403  142.7132  159.9149 N.ar    1  UNL1       -0.2224
      6 C         143.1962  138.8660  156.8891 C.ar    1  UNL1        0.2416
      7 N         143.0713  140.2985  157.3162 N.ar    1  UNL1       -0.2089
      8 C         141.8827  140.7416  158.1168 C.ar    1  UNL1        0.1026
      9 C         140.8189  139.7521  158.4903 C.ar    1  UNL1        0.0224
     10 C         140.9438  138.3196  158.0632 C.ar    1  UNL1        0.0239
     11 C         142.1324  137.8766  157.2626 C.ar    1  UNL1        0.1189
     12 N         142.2572  136.4441  156.8355 N.ar    1  UNL1       -0.2826
     13 C         141.4827  135.7815  155.7351 C.ar    1  UNL1        0.1826
     14 N         141.9253  134.3506  155.6534 N.ar    1  UNL1       -0.2280
     15 C         142.9733  134.1289  156.7033 C.ar    1  UNL1        0.0786
     16 C         143.6904  132.8397  156.9750 C.3     1  UNL1        0.0538
     17 C         143.1785  135.4227  157.4339 C.ar    1  UNL1        0.0963
     18 C         144.8534  139.2446  154.9245 C.3     1  UNL1        0.2543
     19 O         144.3848  138.4229  156.0885 O.3     1  UNL1       -0.4551
     20 N         141.9432  145.1300  161.0526 N.pl3   1  UNL1       -0.2786
     21 H         142.2363  146.0572  160.8988 H       1  UNL1        0.1555
     22 C         141.6541  144.6561  162.4461 C.ar    1  UNL1        0.1278
     23 C         140.2971  144.5435  163.0754 C.ar    1  UNL1        0.0244
     24 C         140.4755  144.0294  164.4732 C.ar    1  UNL1        0.0773
     25 N         141.9428  143.8242  164.7078 N.ar    1  UNL1       -0.1726
     26 N         142.6712  144.2115  163.4550 N.ar    1  UNL1       -0.2295
     27 C         139.1186  143.9169  165.1025 C.3     1  UNL1        0.0477
     28 C         138.1015  144.3615  164.0936 C.3     1  UNL1        0.0112
     29 C         138.8299  144.7488  162.8408 C.3     1  UNL1        0.0308
     30 C         144.1559  144.1627  163.2475 C.3     1  UNL1        0.2315
     31 C         144.8204  142.8679  162.8841 C.3     1  UNL1        0.4200
     32 F         145.4849  141.5731  162.5207 F       1  UNL1       -0.1679
     33 F         144.7947  143.2610  161.4368 F       1  UNL1       -0.1679
     34 F         144.8461  142.4749  164.3315 F       1  UNL1       -0.1679
@<TRIPOS>BOND
     1    18    19    1
     2    19     6    1
     3     6     7   ar
     4     7     8   ar
     5     8     1    1
     6     1     2   ar
     7     2     3   ar
     8     3     4   ar
     9     4    20    1
    10    20    22    1
    11    22    23   ar
    12    23    24   ar
    13    24    25   ar
    14    25    26   ar
    15    26    30    1
    16    30    31    1
    17    31    32    1
    18    31    33    1
    19    31    34    1
    20    24    27    1
    21    27    28    1
    22    28    29    1
    23     4     5   ar
    24     8     9   ar
    25     9    10   ar
    26    10    11   ar
    27    11    12    1
    28    12    13   ar
    29    13    14   ar
    30    14    15   ar
    31    15    16    1
    32    15    17   ar
    33    11     6   ar
    34    17    12   ar
    35     5     1   ar
    36    26    22   ar
    37    29    23    1
    38    20    21    1
