@<TRIPOS>MOLECULE
*****
 34 37 0 0 0
SMALL
GASTEIGER

@<TRIPOS>ATOM
      1 N         141.1913  143.2096  163.5800 N.ar    1  UNL1       -0.2490
      2 C         140.7653  144.5582  163.0801 C.ar    1  UNL1        0.1024
      3 C         140.5289  144.4515  161.6027 C.ar    1  UNL1        0.1051
      4 C         140.8087  143.0369  161.1895 C.ar    1  UNL1        0.1578
      5 N         141.2180  142.2694  162.4115 N.ar    1  UNL1       -0.1539
      6 C         142.2098  142.1676  167.8375 C.3     1  UNL1        0.0588
      7 C         140.7961  142.5035  167.4652 C.3     1  UNL1        0.0180
      8 C         140.4566  142.8509  166.0461 C.3     1  UNL1        0.0268
      9 C         141.5308  142.8623  164.9992 C.3     1  UNL1        0.1193
     10 C         142.9445  142.5263  165.3715 C.3     1  UNL1        0.1151
     11 C         143.2840  142.1790  166.7906 C.3     1  UNL1        0.0330
     12 C         143.8277  142.3159  169.8649 C.3     1  UNL1        0.0897
     13 N         142.5493  141.8202  169.2567 N.3     1  UNL1       -0.2709
     14 C         141.6104  140.9772  170.0677 C.3     1  UNL1        0.1003
     15 C         141.8905  139.8055  169.1740 C.3     1  UNL1        0.0211
     16 C         141.3302  142.1489  170.9614 C.3     1  UNL1        0.1591
     17 O         140.3913  141.3058  171.7724 O.3     1  UNL1       -0.3508
     18 C         140.6714  140.1341  170.8787 C.3     1  UNL1        0.1591
     19 C         144.0187  142.5377  164.3246 C.1     1  UNL1        0.0741
     20 N         145.0929  142.5491  163.2777 N.1     1  UNL1       -0.1958
     21 C         140.0897  145.5640  160.6974 C.2     1  UNL1        0.2470
     22 N         139.1982  146.6503  161.2221 N.am    1  UNL1       -0.3252
     23 O         140.5422  145.5902  159.2675 O.2     1  UNL1       -0.2702
     24 H         138.9013  146.6330  162.1606 H       1  UNL1        0.1453
     25 H         138.9100  147.3804  160.6279 H       1  UNL1        0.1453
     26 N         140.6984  142.4865  159.7985 N.pl3   1  UNL1       -0.2964
     27 H         139.8120  142.3373  159.3970 H       1  UNL1        0.1537
     28 C         141.9388  142.1633  159.0193 C.ar    1  UNL1        0.0495
     29 C         141.9111  141.0821  157.9800 C.ar    1  UNL1        0.0155
     30 C         143.1515  140.7590  157.2008 C.ar    1  UNL1        0.0127
     31 C         144.4194  141.5171  157.4609 C.ar    1  UNL1        0.0578
     32 CL        145.6598  141.1940  156.6816 Cl      1  UNL1       -0.0822
     33 C         144.4470  142.5984  158.5002 C.ar    1  UNL1        0.0127
     34 C         143.2067  142.9215  159.2794 C.ar    1  UNL1        0.0155
@<TRIPOS>BOND
     1    12    13    1
     2     6    13    1
     3     6     7    1
     4     7     8    1
     5     8     9    1
     6     9     1    1
     7     1     2   ar
     8     2     3   ar
     9     3    21    1
    10    21    22   am
    11    21    23    2
    12     3     4   ar
    13     4    26    1
    14    26    28    1
    15    28    29   ar
    16    29    30   ar
    17    30    31   ar
    18    31    32    1
    19    31    33   ar
    20    33    34   ar
    21     4     5   ar
    22     9    10    1
    23    10    19    1
    24    19    20    3
    25    10    11    1
    26    13    14    1
    27    14    15    1
    28    14    16    1
    29    16    17    1
    30    17    18    1
    31    11     6    1
    32    18    14    1
    33     5     1   ar
    34    34    28   ar
    35    22    24    1
    36    22    25    1
    37    26    27    1
@<TRIPOS>MOLECULE
*****
 34 37 0 0 0
SMALL
GASTEIGER

@<TRIPOS>ATOM
      1 N         141.0711  143.1716  163.7274 N.ar    1  UNL1       -0.2490
      2 C         141.0628  144.5427  163.1191 C.ar    1  UNL1        0.1024
      3 C         140.6283  144.4128  161.6893 C.ar    1  UNL1        0.1051
      4 C         140.3681  142.9614  161.4140 C.ar    1  UNL1        0.1578
      5 N         140.6417  142.1943  162.6736 N.ar    1  UNL1       -0.1539
      6 C         142.1879  142.1668  167.9693 C.3     1  UNL1        0.0588
      7 C         140.7688  142.5145  167.6296 C.3     1  UNL1        0.0180
      8 C         140.3966  142.8494  166.2157 C.3     1  UNL1        0.0268
      9 C         141.4434  142.8367  165.1414 C.3     1  UNL1        0.1193
     10 C         142.8624  142.4890  165.4811 C.3     1  UNL1        0.1151
     11 C         143.2347  142.1540  166.8950 C.3     1  UNL1        0.0330
     12 C         143.8656  142.3081  169.9480 C.3     1  UNL1        0.0897
     13 N         142.5602  141.8318  169.3832 N.3     1  UNL1       -0.2709
     14 C         141.6270  141.0206  170.2324 C.3     1  UNL1        0.1003
     15 C         141.9334  139.8054  169.4082 C.3     1  UNL1        0.0211
     16 C         141.3206  142.2359  171.0566 C.3     1  UNL1        0.1591
     17 O         140.3874  141.4247  171.9058 O.3     1  UNL1       -0.3508
     18 C         140.6938  140.2094  171.0816 C.3     1  UNL1        0.1591
     19 C         143.9092  142.4762  164.4068 C.1     1  UNL1        0.0741
     20 N         144.9560  142.4634  163.3325 N.1     1  UNL1       -0.1958
     21 C         140.4801  145.5369  160.7073 C.2     1  UNL1        0.2470
     22 N         141.4778  145.7014  159.5993 N.am    1  UNL1       -0.3252
     23 O         139.3341  146.4966  160.8332 O.2     1  UNL1       -0.2702
     24 H         142.2299  145.0715  159.5166 H       1  UNL1        0.1453
     25 H         141.3805  146.4391  158.9547 H       1  UNL1        0.1453
     26 N         139.9139  142.3793  160.1082 N.pl3   1  UNL1       -0.2964
     27 H         139.1728  142.7982  159.6138 H       1  UNL1        0.1537
     28 C         140.5891  141.1591  159.5558 C.ar    1  UNL1        0.0495
     29 C         140.1330  139.7938  159.9779 C.ar    1  UNL1        0.0155
     30 C         140.8082  138.5736  159.4255 C.ar    1  UNL1        0.0127
     31 C         141.9393  138.7185  158.4510 C.ar    1  UNL1        0.0578
     32 CL        142.6144  137.4982  157.8986 Cl      1  UNL1       -0.0822
     33 C         142.3953  140.0838  158.0290 C.ar    1  UNL1        0.0127
     34 C         141.7202  141.3040  158.5814 C.ar    1  UNL1        0.0155
@<TRIPOS>BOND
     1    12    13    1
     2     6    13    1
     3     6     7    1
     4     7     8    1
     5     8     9    1
     6     9     1    1
     7     1     2   ar
     8     2     3   ar
     9     3    21    1
    10    21    22   am
    11    21    23    2
    12     3     4   ar
    13     4    26    1
    14    26    28    1
    15    28    29   ar
    16    29    30   ar
    17    30    31   ar
    18    31    32    1
    19    31    33   ar
    20    33    34   ar
    21     4     5   ar
    22     9    10    1
    23    10    19    1
    24    19    20    3
    25    10    11    1
    26    13    14    1
    27    14    15    1
    28    14    16    1
    29    16    17    1
    30    17    18    1
    31    11     6    1
    32    18    14    1
    33     5     1   ar
    34    34    28   ar
    35    22    24    1
    36    22    25    1
    37    26    27    1
@<TRIPOS>MOLECULE
*****
 34 37 0 0 0
SMALL
GASTEIGER

@<TRIPOS>ATOM
      1 N         140.6350  143.0268  163.5961 N.ar    1  UNL1       -0.2490
      2 C         140.0309  142.0354  162.6461 C.ar    1  UNL1        0.1024
      3 C         139.6951  142.7570  161.3747 C.ar    1  UNL1        0.1051
      4 C         140.0915  144.1944  161.5390 C.ar    1  UNL1        0.1578
      5 N         140.6724  144.3611  162.9118 N.ar    1  UNL1       -0.1539
      6 C         142.0808  142.1514  167.7666 C.3     1  UNL1        0.0588
      7 C         140.6297  142.4409  167.5212 C.3     1  UNL1        0.0180
      8 C         140.1477  142.7327  166.1311 C.3     1  UNL1        0.0268
      9 C         141.1170  142.7350  164.9863 C.3     1  UNL1        0.1193
     10 C         142.5682  142.4455  165.2316 C.3     1  UNL1        0.1151
     11 C         143.0501  142.1537  166.6218 C.3     1  UNL1        0.0330
     12 C         143.8741  142.4150  169.6280 C.3     1  UNL1        0.0897
     13 N         142.5628  141.8596  169.1568 N.3     1  UNL1       -0.2709
     14 C         141.7335  141.0124  170.0757 C.3     1  UNL1        0.1003
     15 C         142.0642  139.8001  169.2566 C.3     1  UNL1        0.0211
     16 C         141.4028  142.2247  170.8949 C.3     1  UNL1        0.1591
     17 O         140.5734  141.3775  171.8138 O.3     1  UNL1       -0.3508
     18 C         140.9042  140.1652  170.9947 C.3     1  UNL1        0.1591
     19 C         143.5374  142.4478  164.0869 C.1     1  UNL1        0.0741
     20 N         144.5067  142.4501  162.9421 N.1     1  UNL1       -0.1958
     21 C         139.0721  142.1483  160.1535 C.2     1  UNL1        0.2470
     22 N         139.3740  140.7252  159.7877 N.am    1  UNL1       -0.3252
     23 O         138.1472  142.9625  159.2982 O.2     1  UNL1       -0.2702
     24 H         139.9810  140.1908  160.3491 H       1  UNL1        0.1453
     25 H         138.9651  140.3256  158.9862 H       1  UNL1        0.1453
     26 N         139.9346  145.2753  160.5108 N.pl3   1  UNL1       -0.2964
     27 H         139.3534  146.0485  160.6942 H       1  UNL1        0.1537
     28 C         140.6632  145.1781  159.2033 C.ar    1  UNL1        0.0495
     29 C         140.1770  145.9528  158.0144 C.ar    1  UNL1        0.0155
     30 C         140.9056  145.8556  156.7069 C.ar    1  UNL1        0.0127
     31 C         142.1205  144.9838  156.5882 C.ar    1  UNL1        0.0578
     32 CL        142.8491  144.8867  155.2806 Cl      1  UNL1       -0.0822
     33 C         142.6067  144.2092  157.7771 C.ar    1  UNL1        0.0127
     34 C         141.8781  144.3063  159.0846 C.ar    1  UNL1        0.0155
@<TRIPOS>BOND
     1    12    13    1
     2     6    13    1
     3     6     7    1
     4     7     8    1
     5     8     9    1
     6     9     1    1
     7     1     2   ar
     8     2     3   ar
     9     3    21    1
    10    21    22   am
    11    21    23    2
    12     3     4   ar
    13     4    26    1
    14    26    28    1
    15    28    29   ar
    16    29    30   ar
    17    30    31   ar
    18    31    32    1
    19    31    33   ar
    20    33    34   ar
    21     4     5   ar
    22     9    10    1
    23    10    19    1
    24    19    20    3
    25    10    11    1
    26    13    14    1
    27    14    15    1
    28    14    16    1
    29    16    17    1
    30    17    18    1
    31    11     6    1
    32    18    14    1
    33     5     1   ar
    34    34    28   ar
    35    22    24    1
    36    22    25    1
    37    26    27    1
@<TRIPOS>MOLECULE
*****
 34 37 0 0 0
SMALL
GASTEIGER

@<TRIPOS>ATOM
      1 N         141.5821  143.0434  163.3260 N.ar    1  UNL1       -0.2490
      2 C         141.2895  144.3942  162.7429 C.ar    1  UNL1        0.1024
      3 C         141.1531  144.2381  161.2573 C.ar    1  UNL1        0.1051
      4 C         141.3614  142.7908  160.9222 C.ar    1  UNL1        0.1578
      5 N         141.6265  142.0526  162.2008 N.ar    1  UNL1       -0.1539
      6 C         142.2154  142.1254  167.6856 C.3     1  UNL1        0.0588
      7 C         143.3960  142.3215  166.7812 C.3     1  UNL1        0.0180
      8 C         143.1848  142.6275  165.3281 C.3     1  UNL1        0.0268
      9 C         141.7932  142.7374  164.7792 C.3     1  UNL1        0.1193
     10 C         140.6126  142.5413  165.6836 C.3     1  UNL1        0.1151
     11 C         140.8238  142.2352  167.1367 C.3     1  UNL1        0.0330
     12 C         143.5582  142.4626  169.8841 C.3     1  UNL1        0.0897
     13 N         142.4265  141.8193  169.1388 N.3     1  UNL1       -0.2709
     14 C         141.5059  140.8700  169.8467 C.3     1  UNL1        0.1003
     15 C         142.1163  139.7212  169.1000 C.3     1  UNL1        0.0211
     16 C         140.8955  142.0188  170.5935 C.3     1  UNL1        0.1591
     17 O         139.9748  141.0694  171.3014 O.3     1  UNL1       -0.3508
     18 C         140.5852  139.9206  170.5547 C.3     1  UNL1        0.1591
     19 C         139.2210  142.6512  165.1347 C.1     1  UNL1        0.0741
     20 N         137.8293  142.7611  164.5859 N.1     1  UNL1       -0.1958
     21 C         140.8600  145.3363  160.2786 C.2     1  UNL1        0.2470
     22 N         141.8760  145.7050  159.2384 N.am    1  UNL1       -0.3252
     23 O         139.5508  146.0659  160.3400 O.2     1  UNL1       -0.2702
     24 H         142.7352  145.2261  159.1981 H       1  UNL1        0.1453
     25 H         141.6835  146.4258  158.5961 H       1  UNL1        0.1453
     26 N         141.3130  142.1878  159.5496 N.pl3   1  UNL1       -0.2964
     27 H         140.4707  141.8103  159.2072 H       1  UNL1        0.1537
     28 C         142.5480  142.1599  158.6988 C.ar    1  UNL1        0.0495
     29 C         143.8729  142.5456  159.2870 C.ar    1  UNL1        0.0155
     30 C         145.1079  142.5177  158.4361 C.ar    1  UNL1        0.0127
     31 C         145.0180  142.1041  156.9970 C.ar    1  UNL1        0.0578
     32 CL        146.2531  142.0762  156.1461 Cl      1  UNL1       -0.0822
     33 C         143.6932  141.7183  156.4088 C.ar    1  UNL1        0.0127
     34 C         142.4582  141.7462  157.2597 C.ar    1  UNL1        0.0155
@<TRIPOS>BOND
     1    12    13    1
     2     6    13    1
     3     6     7    1
     4     7     8    1
     5     8     9    1
     6     9     1    1
     7     1     2   ar
     8     2     3   ar
     9     3    21    1
    10    21    22   am
    11    21    23    2
    12     3     4   ar
    13     4    26    1
    14    26    28    1
    15    28    29   ar
    16    29    30   ar
    17    30    31   ar
    18    31    32    1
    19    31    33   ar
    20    33    34   ar
    21     4     5   ar
    22     9    10    1
    23    10    19    1
    24    19    20    3
    25    10    11    1
    26    13    14    1
    27    14    15    1
    28    14    16    1
    29    16    17    1
    30    17    18    1
    31    11     6    1
    32    18    14    1
    33     5     1   ar
    34    34    28   ar
    35    22    24    1
    36    22    25    1
    37    26    27    1
@<TRIPOS>MOLECULE
*****
 34 37 0 0 0
SMALL
GASTEIGER

@<TRIPOS>ATOM
      1 N         141.6034  143.1416  163.3920 N.ar    1  UNL1       -0.2490
      2 C         141.1900  144.4792  162.8534 C.ar    1  UNL1        0.1024
      3 C         141.0947  144.3685  161.3606 C.ar    1  UNL1        0.1051
      4 C         141.4493  142.9624  160.9765 C.ar    1  UNL1        0.1578
      5 N         141.7637  142.2043  162.2320 N.ar    1  UNL1       -0.1539
      6 C         142.2497  142.1205  167.7267 C.3     1  UNL1        0.0588
      7 C         143.4251  142.4104  166.8412 C.3     1  UNL1        0.0180
      8 C         143.2097  142.7507  165.3963 C.3     1  UNL1        0.0268
      9 C         141.8188  142.8012  164.8370 C.3     1  UNL1        0.1193
     10 C         140.6433  142.5114  165.7225 C.3     1  UNL1        0.1151
     11 C         140.8588  142.1710  167.1674 C.3     1  UNL1        0.0330
     12 C         143.5687  142.4425  169.9418 C.3     1  UNL1        0.0897
     13 N         142.4651  141.7801  169.1717 N.3     1  UNL1       -0.2709
     14 C         141.5768  140.7773  169.8464 C.3     1  UNL1        0.1003
     15 C         142.2272  139.6749  169.0644 C.3     1  UNL1        0.0211
     16 C         140.9263  141.8797  170.6285 C.3     1  UNL1        0.1591
     17 O         140.0380  140.8769  171.3033 O.3     1  UNL1       -0.3508
     18 C         140.6884  139.7745  170.5212 C.3     1  UNL1        0.1591
     19 C         139.2525  142.5619  165.1632 C.1     1  UNL1        0.0741
     20 N         137.8616  142.6124  164.6038 N.1     1  UNL1       -0.1958
     21 C         140.7120  145.4703  160.4174 C.2     1  UNL1        0.2470
     22 N         139.5189  146.3300  160.7130 N.am    1  UNL1       -0.3252
     23 O         141.5225  145.7123  159.1786 O.2     1  UNL1       -0.2702
     24 H         138.9870  146.1711  161.5261 H       1  UNL1        0.1453
     25 H         139.2677  147.0531  160.0940 H       1  UNL1        0.1453
     26 N         141.4834  142.4114  159.5818 N.pl3   1  UNL1       -0.2964
     27 H         142.3455  142.2850  159.1234 H       1  UNL1        0.1537
     28 C         140.2041  142.0530  158.8854 C.ar    1  UNL1        0.0495
     29 C         139.5997  140.6940  159.0799 C.ar    1  UNL1        0.0155
     30 C         138.3204  140.3356  158.3836 C.ar    1  UNL1        0.0127
     31 C         137.6456  141.3362  157.4927 C.ar    1  UNL1        0.0578
     32 CL        136.3662  140.9777  156.7964 Cl      1  UNL1       -0.0822
     33 C         138.2500  142.6951  157.2983 C.ar    1  UNL1        0.0127
     34 C         139.5293  143.0535  157.9946 C.ar    1  UNL1        0.0155
@<TRIPOS>BOND
     1    12    13    1
     2     6    13    1
     3     6     7    1
     4     7     8    1
     5     8     9    1
     6     9     1    1
     7     1     2   ar
     8     2     3   ar
     9     3    21    1
    10    21    22   am
    11    21    23    2
    12     3     4   ar
    13     4    26    1
    14    26    28    1
    15    28    29   ar
    16    29    30   ar
    17    30    31   ar
    18    31    32    1
    19    31    33   ar
    20    33    34   ar
    21     4     5   ar
    22     9    10    1
    23    10    19    1
    24    19    20    3
    25    10    11    1
    26    13    14    1
    27    14    15    1
    28    14    16    1
    29    16    17    1
    30    17    18    1
    31    11     6    1
    32    18    14    1
    33     5     1   ar
    34    34    28   ar
    35    22    24    1
    36    22    25    1
    37    26    27    1
@<TRIPOS>MOLECULE
*****
 34 37 0 0 0
SMALL
GASTEIGER

@<TRIPOS>ATOM
      1 N         140.3863  142.5669  163.3971 N.ar    1  UNL1       -0.2490
      2 C         141.0510  143.6186  162.5592 C.ar    1  UNL1        0.1024
      3 C         140.2841  143.7421  161.2761 C.ar    1  UNL1        0.1051
      4 C         139.1454  142.7666  161.3209 C.ar    1  UNL1        0.1578
      5 N         139.2087  142.0403  162.6318 N.ar    1  UNL1       -0.1539
      6 C         141.6958  141.2265  167.4884 C.3     1  UNL1        0.0588
      7 C         142.1859  140.5027  166.2696 C.3     1  UNL1        0.0180
      8 C         141.7494  140.9495  164.9058 C.3     1  UNL1        0.0268
      9 C         140.8228  142.1201  164.7610 C.3     1  UNL1        0.1193
     10 C         140.3327  142.8440  165.9799 C.3     1  UNL1        0.1151
     11 C         140.7692  142.3972  167.3436 C.3     1  UNL1        0.0330
     12 C         142.3717  139.3241  169.1237 C.3     1  UNL1        0.0897
     13 N         142.1323  140.7798  168.8523 N.3     1  UNL1       -0.2709
     14 C         142.3292  141.7887  169.9446 C.3     1  UNL1        0.1003
     15 C         143.5433  142.3159  169.2388 C.3     1  UNL1        0.0211
     16 C         141.1152  141.2615  170.6505 C.3     1  UNL1        0.1591
     17 O         141.3122  142.2705  171.7428 O.3     1  UNL1       -0.3508
     18 C         142.5262  142.7977  171.0370 C.3     1  UNL1        0.1591
     19 C         139.4061  144.0146  165.8350 C.1     1  UNL1        0.0741
     20 N         138.4794  145.1852  165.6902 N.1     1  UNL1       -0.1958
     21 C         140.6002  144.6769  160.1464 C.2     1  UNL1        0.2470
     22 N         141.8743  145.4686  160.1622 N.am    1  UNL1       -0.3252
     23 O         139.6424  144.8201  159.0010 O.2     1  UNL1       -0.2702
     24 H         142.5029  145.3746  160.9140 H       1  UNL1        0.1453
     25 H         142.0818  146.0821  159.4207 H       1  UNL1        0.1453
     26 N         138.1231  142.5547  160.2439 N.pl3   1  UNL1       -0.2964
     27 H         137.2655  143.0370  160.2775 H       1  UNL1        0.1537
     28 C         138.4073  141.6079  159.1158 C.ar    1  UNL1        0.0495
     29 C         137.9148  141.9188  157.7335 C.ar    1  UNL1        0.0155
     30 C         138.1991  140.9720  156.6054 C.ar    1  UNL1        0.0127
     31 C         138.9758  139.7142  156.8596 C.ar    1  UNL1        0.0578
     32 CL        139.2601  138.7673  155.7314 Cl      1  UNL1       -0.0822
     33 C         139.4683  139.4032  158.2419 C.ar    1  UNL1        0.0127
     34 C         139.1841  140.3500  159.3700 C.ar    1  UNL1        0.0155
@<TRIPOS>BOND
     1    12    13    1
     2     6    13    1
     3     6     7    1
     4     7     8    1
     5     8     9    1
     6     9     1    1
     7     1     2   ar
     8     2     3   ar
     9     3    21    1
    10    21    22   am
    11    21    23    2
    12     3     4   ar
    13     4    26    1
    14    26    28    1
    15    28    29   ar
    16    29    30   ar
    17    30    31   ar
    18    31    32    1
    19    31    33   ar
    20    33    34   ar
    21     4     5   ar
    22     9    10    1
    23    10    19    1
    24    19    20    3
    25    10    11    1
    26    13    14    1
    27    14    15    1
    28    14    16    1
    29    16    17    1
    30    17    18    1
    31    11     6    1
    32    18    14    1
    33     5     1   ar
    34    34    28   ar
    35    22    24    1
    36    22    25    1
    37    26    27    1
@<TRIPOS>MOLECULE
*****
 34 37 0 0 0
SMALL
GASTEIGER

@<TRIPOS>ATOM
      1 N         140.1645  140.4975  163.6853 N.ar    1  UNL1       -0.2490
      2 C         139.8923  141.7681  162.9360 C.ar    1  UNL1        0.1024
      3 C         139.4473  141.4032  161.5508 C.ar    1  UNL1        0.1051
      4 C         139.4445  139.9069  161.4440 C.ar    1  UNL1        0.1578
      5 N         139.8877  139.3472  162.7632 N.ar    1  UNL1       -0.1539
      6 C         141.5655  140.1904  167.9506 C.3     1  UNL1        0.0588
      7 C         140.2181  140.7739  167.6439 C.3     1  UNL1        0.0180
      8 C         139.7512  140.8763  166.2222 C.3     1  UNL1        0.0268
      9 C         140.6316  140.3951  165.1071 C.3     1  UNL1        0.1193
     10 C         141.9789  139.8116  165.4138 C.3     1  UNL1        0.1151
     11 C         142.4459  139.7093  166.8355 C.3     1  UNL1        0.0330
     12 C         142.5258  138.7764  169.9072 C.3     1  UNL1        0.0897
     13 N         142.0325  140.0881  169.3724 N.3     1  UNL1       -0.2709
     14 C         142.0063  141.2975  170.2594 C.3     1  UNL1        0.1003
     15 C         143.1770  141.8685  169.5155 C.3     1  UNL1        0.0211
     16 C         140.8355  140.7265  171.0033 C.3     1  UNL1        0.1591
     17 O         140.8093  141.9359  171.8902 O.3     1  UNL1       -0.3508
     18 C         141.9800  142.5069  171.1463 C.3     1  UNL1        0.1591
     19 C         142.8593  139.3304  164.2987 C.1     1  UNL1        0.0741
     20 N         143.7397  138.8492  163.1837 N.1     1  UNL1       -0.1958
     21 C         139.0711  142.3654  160.4634 C.2     1  UNL1        0.2470
     22 N         139.2322  143.8411  160.6790 N.am    1  UNL1       -0.3252
     23 O         138.5338  141.8520  159.1604 O.2     1  UNL1       -0.2702
     24 H         139.5848  144.1781  161.5341 H       1  UNL1        0.1453
     25 H         138.9853  144.4727  159.9652 H       1  UNL1        0.1453
     26 N         139.0650  139.1103  160.2310 N.pl3   1  UNL1       -0.2964
     27 H         138.1171  138.9229  160.0419 H       1  UNL1        0.1537
     28 C         140.1296  138.5992  159.3061 C.ar    1  UNL1        0.0495
     29 C         139.7732  138.1822  157.9101 C.ar    1  UNL1        0.0155
     30 C         140.8378  137.6712  156.9852 C.ar    1  UNL1        0.0127
     31 C         142.2588  137.5771  157.4564 C.ar    1  UNL1        0.0578
     32 CL        143.3234  137.0660  156.5315 Cl      1  UNL1       -0.0822
     33 C         142.6151  137.9941  158.8525 C.ar    1  UNL1        0.0127
     34 C         141.5505  138.5052  159.7774 C.ar    1  UNL1        0.0155
@<TRIPOS>BOND
     1    12    13    1
     2     6    13    1
     3     6     7    1
     4     7     8    1
     5     8     9    1
     6     9     1    1
     7     1     2   ar
     8     2     3   ar
     9     3    21    1
    10    21    22   am
    11    21    23    2
    12     3     4   ar
    13     4    26    1
    14    26    28    1
    15    28    29   ar
    16    29    30   ar
    17    30    31   ar
    18    31    32    1
    19    31    33   ar
    20    33    34   ar
    21     4     5   ar
    22     9    10    1
    23    10    19    1
    24    19    20    3
    25    10    11    1
    26    13    14    1
    27    14    15    1
    28    14    16    1
    29    16    17    1
    30    17    18    1
    31    11     6    1
    32    18    14    1
    33     5     1   ar
    34    34    28   ar
    35    22    24    1
    36    22    25    1
    37    26    27    1
@<TRIPOS>MOLECULE
*****
 34 37 0 0 0
SMALL
GASTEIGER

@<TRIPOS>ATOM
      1 N         142.4627  137.6563  158.2747 N.ar    1  UNL1       -0.2490
      2 C         141.1223  137.8482  157.6293 C.ar    1  UNL1        0.1024
      3 C         141.0873  137.0209  156.3787 C.ar    1  UNL1        0.1051
      4 C         142.4061  136.3175  156.2511 C.ar    1  UNL1        0.1578
      5 N         143.2561  136.7103  157.4229 N.ar    1  UNL1       -0.1539
      6 C         143.8585  139.5806  162.0955 C.3     1  UNL1        0.0588
      7 C         143.1831  138.2419  162.1333 C.3     1  UNL1        0.0180
      8 C         142.7178  137.6005  160.8597 C.3     1  UNL1        0.0268
      9 C         142.9280  138.2978  159.5484 C.3     1  UNL1        0.1193
     10 C         143.6035  139.6365  159.5106 C.3     1  UNL1        0.1151
     11 C         144.0687  140.2779  160.7842 C.3     1  UNL1        0.0330
     12 C         144.8585  139.3736  164.4845 C.3     1  UNL1        0.0897
     13 N         144.3238  140.2221  163.3692 N.3     1  UNL1       -0.2709
     14 C         144.2544  141.7121  163.5274 C.3     1  UNL1        0.1003
     15 C         145.7481  141.7934  163.4176 C.3     1  UNL1        0.0211
     16 C         142.7606  141.6308  163.6372 C.3     1  UNL1        0.1591
     17 O         142.6912  143.1209  163.7954 O.3     1  UNL1       -0.3508
     18 C         144.1849  143.2021  163.6856 C.3     1  UNL1        0.1591
     19 C         143.8137  140.3338  158.1993 C.1     1  UNL1        0.0741
     20 N         144.0239  141.0312  156.8880 N.1     1  UNL1       -0.1958
     21 C         139.9357  136.9153  155.4233 C.2     1  UNL1        0.2470
     22 N         138.5706  137.3766  155.8402 N.am    1  UNL1       -0.3252
     23 O         140.1493  136.3485  154.0510 O.2     1  UNL1       -0.2702
     24 H         138.4305  137.7486  156.7408 H       1  UNL1        0.1453
     25 H         137.8148  137.3073  155.2131 H       1  UNL1        0.1453
     26 N         142.8048  135.3852  155.1458 N.pl3   1  UNL1       -0.2964
     27 H         143.1237  135.7471  154.2875 H       1  UNL1        0.1537
     28 C         142.7175  133.9015  155.3480 C.ar    1  UNL1        0.0495
     29 C         141.4544  133.1703  155.0018 C.ar    1  UNL1        0.0155
     30 C         141.3671  131.6866  155.2041 C.ar    1  UNL1        0.0127
     31 C         142.5431  130.9340  155.7525 C.ar    1  UNL1        0.0578
     32 CL        142.4558  129.4502  155.9548 Cl      1  UNL1       -0.0822
     33 C         143.8062  131.6651  156.0988 C.ar    1  UNL1        0.0127
     34 C         143.8935  133.1488  155.8965 C.ar    1  UNL1        0.0155
@<TRIPOS>BOND
     1    12    13    1
     2     6    13    1
     3     6     7    1
     4     7     8    1
     5     8     9    1
     6     9     1    1
     7     1     2   ar
     8     2     3   ar
     9     3    21    1
    10    21    22   am
    11    21    23    2
    12     3     4   ar
    13     4    26    1
    14    26    28    1
    15    28    29   ar
    16    29    30   ar
    17    30    31   ar
    18    31    32    1
    19    31    33   ar
    20    33    34   ar
    21     4     5   ar
    22     9    10    1
    23    10    19    1
    24    19    20    3
    25    10    11    1
    26    13    14    1
    27    14    15    1
    28    14    16    1
    29    16    17    1
    30    17    18    1
    31    11     6    1
    32    18    14    1
    33     5     1   ar
    34    34    28   ar
    35    22    24    1
    36    22    25    1
    37    26    27    1
@<TRIPOS>MOLECULE
*****
 34 37 0 0 0
SMALL
GASTEIGER

@<TRIPOS>ATOM
      1 N         139.4041  140.4721  160.2799 N.ar    1  UNL1       -0.2490
      2 C         139.5875  141.9391  160.5335 C.ar    1  UNL1        0.1024
      3 C         138.9147  142.2728  161.8319 C.ar    1  UNL1        0.1051
      4 C         138.3154  141.0119  162.3808 C.ar    1  UNL1        0.1578
      5 N         138.6179  139.8991  161.4216 N.ar    1  UNL1       -0.1539
      6 C         140.9423  138.1908  156.7190 C.3     1  UNL1        0.0588
      7 C         139.8528  139.2070  156.5451 C.3     1  UNL1        0.0180
      8 C         139.3400  139.9674  157.7320 C.3     1  UNL1        0.0268
      9 C         139.9169  139.7116  159.0929 C.3     1  UNL1        0.1193
     10 C         141.0064  138.6955  159.2668 C.3     1  UNL1        0.1151
     11 C         141.5191  137.9351  158.0799 C.3     1  UNL1        0.0330
     12 C         140.6570  137.3942  154.2626 C.3     1  UNL1        0.0897
     13 N         141.4551  137.4304  155.5321 N.3     1  UNL1       -0.2709
     14 C         142.7661  136.7061  155.6146 C.3     1  UNL1        0.1003
     15 C         142.0372  135.4059  155.7828 C.3     1  UNL1        0.0211
     16 C         143.4950  138.0062  155.4465 C.3     1  UNL1        0.1591
     17 O         144.8059  137.2820  155.5291 O.3     1  UNL1       -0.3508
     18 C         144.0770  135.9818  155.6972 C.3     1  UNL1        0.1591
     19 C         141.5832  138.4397  160.6276 C.1     1  UNL1        0.0741
     20 N         142.1600  138.1840  161.9885 N.1     1  UNL1       -0.1958
     21 C         138.8521  143.6290  162.4695 C.2     1  UNL1        0.2470
     22 N         137.5272  144.3037  162.6687 N.am    1  UNL1       -0.3252
     23 O         140.1143  144.3106  162.9078 O.2     1  UNL1       -0.2702
     24 H         136.6988  143.8563  162.3810 H       1  UNL1        0.1453
     25 H         137.4862  145.1939  163.0872 H       1  UNL1        0.1453
     26 N         137.5483  140.8861  163.6637 N.pl3   1  UNL1       -0.2964
     27 H         136.5662  140.9549  163.6587 H       1  UNL1        0.1537
     28 C         138.2775  140.6553  164.9540 C.ar    1  UNL1        0.0495
     29 C         139.2720  141.6654  165.4444 C.ar    1  UNL1        0.0155
     30 C         140.0012  141.4347  166.7347 C.ar    1  UNL1        0.0127
     31 C         139.7359  140.1938  167.5346 C.ar    1  UNL1        0.0578
     32 CL        140.4652  139.9630  168.8250 Cl      1  UNL1       -0.0822
     33 C         138.7414  139.1836  167.0442 C.ar    1  UNL1        0.0127
     34 C         138.0122  139.4144  165.7539 C.ar    1  UNL1        0.0155
@<TRIPOS>BOND
     1    12    13    1
     2     6    13    1
     3     6     7    1
     4     7     8    1
     5     8     9    1
     6     9     1    1
     7     1     2   ar
     8     2     3   ar
     9     3    21    1
    10    21    22   am
    11    21    23    2
    12     3     4   ar
    13     4    26    1
    14    26    28    1
    15    28    29   ar
    16    29    30   ar
    17    30    31   ar
    18    31    32    1
    19    31    33   ar
    20    33    34   ar
    21     4     5   ar
    22     9    10    1
    23    10    19    1
    24    19    20    3
    25    10    11    1
    26    13    14    1
    27    14    15    1
    28    14    16    1
    29    16    17    1
    30    17    18    1
    31    11     6    1
    32    18    14    1
    33     5     1   ar
    34    34    28   ar
    35    22    24    1
    36    22    25    1
    37    26    27    1
