@<TRIPOS>MOLECULE
*****
 33 36 0 0 0
SMALL
GASTEIGER

@<TRIPOS>ATOM
      1 N         139.7157  138.7868  162.1171 N.3     1  UNL1       -0.2679
      2 C         139.4311  137.7528  163.1660 C.3     1  UNL1        0.0897
      3 C         140.3875  137.5566  164.3047 C.3     1  UNL1        0.0897
      4 N         141.6285  138.3943  164.3947 N.3     1  UNL1       -0.2700
      5 C         141.9132  139.4282  163.3459 C.3     1  UNL1        0.0897
      6 C         140.9567  139.6244  162.2071 C.3     1  UNL1        0.0897
      7 C         138.7594  138.9830  160.9783 C.3     1  UNL1        0.1080
      8 C         137.6796  140.0197  161.0758 C.3     1  UNL1        0.1661
      9 O         136.4980  139.9609  160.1538 O.3     1  UNL1       -0.3771
     10 H         136.5875  139.1977  159.5618 H       1  UNL1        0.2109
     11 C         138.0877  143.6295  162.6735 C.ar    1  UNL1        0.1510
     12 C         137.9857  142.5340  161.6539 C.ar    1  UNL1        0.0548
     13 C         137.7816  141.1151  162.0954 C.ar    1  UNL1        0.0901
     14 N         137.6795  140.7916  163.5566 N.ar    1  UNL1       -0.2448
     15 C         137.7815  141.8871  164.5761 C.ar    1  UNL1        0.1118
     16 C         137.9856  143.3061  164.1346 C.ar    1  UNL1        0.1213
     17 C         139.6779  145.5636  161.9803 C.3     1  UNL1        0.2525
     18 O         138.2918  145.0485  162.2319 O.3     1  UNL1       -0.4707
     19 C         138.0876  144.4015  165.1542 C.1     1  UNL1        0.1051
     20 N         138.1896  145.4968  166.1739 N.1     1  UNL1       -0.1907
     21 C         142.5848  138.1981  165.5335 C.3     1  UNL1        0.0769
     22 C         143.2356  139.3852  166.1795 C.3     1  UNL1        0.0433
     23 C         142.5815  140.0531  167.3526 C.ar    1  UNL1       -0.0249
     24 C         142.6822  139.4391  168.7174 C.ar    1  UNL1       -0.0043
     25 C         142.0281  140.1070  169.8904 C.ar    1  UNL1        0.0059
     26 C         141.2734  141.3890  169.6986 C.ar    1  UNL1        0.0748
     27 C         141.1727  142.0031  168.3338 C.ar    1  UNL1        0.0233
     28 C         141.8268  141.3352  167.1608 C.ar    1  UNL1       -0.0260
     29 C         141.7262  141.9493  165.7959 C.3     1  UNL1        0.0305
     30 C         140.3681  143.2636  168.4508 C.3     1  UNL1        0.2352
     31 O         139.9715  143.4285  169.8880 O.3     1  UNL1       -0.4404
     32 C         140.5310  142.2700  170.6592 C.2     1  UNL1        0.3413
     33 O         140.3753  142.0339  172.1323 O.2     1  UNL1       -0.2449
@<TRIPOS>BOND
     1    17    18    1
     2    18    11    1
     3    11    12   ar
     4    12    13   ar
     5    13     8    1
     6     8     9    1
     7     8     7    1
     8     7     1    1
     9     1     2    1
    10     2     3    1
    11     3     4    1
    12     4    21    1
    13    21    22    1
    14    22    23    1
    15    23    24   ar
    16    24    25   ar
    17    25    26   ar
    18    26    27   ar
    19    27    28   ar
    20    28    29    1
    21    27    30    1
    22    30    31    1
    23    31    32    1
    24    32    33    2
    25     4     5    1
    26     5     6    1
    27    13    14   ar
    28    14    15   ar
    29    15    16   ar
    30    16    19    1
    31    19    20    3
    32    16    11   ar
    33     6     1    1
    34    28    23   ar
    35    32    26    1
    36     9    10    1
@<TRIPOS>MOLECULE
*****
 33 36 0 0 0
SMALL
GASTEIGER

@<TRIPOS>ATOM
      1 N         143.7322  140.0949  164.5672 N.3     1  UNL1       -0.2679
      2 C         142.9594  139.8890  165.8362 C.3     1  UNL1        0.0897
      3 C         141.8372  138.8946  165.8779 C.3     1  UNL1        0.0897
      4 N         141.4877  138.1061  164.6507 N.3     1  UNL1       -0.2700
      5 C         142.2605  138.3120  163.3817 C.3     1  UNL1        0.0897
      6 C         143.3828  139.3064  163.3400 C.3     1  UNL1        0.0897
      7 C         144.8545  141.0893  164.5253 C.3     1  UNL1        0.1080
      8 C         145.0001  142.0068  163.3476 C.3     1  UNL1        0.1661
      9 O         146.2873  142.0413  162.5784 O.3     1  UNL1       -0.3771
     10 H         146.9154  141.4150  162.9709 H       1  UNL1        0.2109
     11 C         142.5167  144.1198  161.0853 C.ar    1  UNL1        0.1510
     12 C         143.6585  143.2368  161.4937 C.ar    1  UNL1        0.0548
     13 C         143.8583  142.8898  162.9393 C.ar    1  UNL1        0.0901
     14 N         142.9165  143.4259  163.9764 N.ar    1  UNL1       -0.2448
     15 C         141.7748  144.3088  163.5680 C.ar    1  UNL1        0.1118
     16 C         141.5749  144.6558  162.1224 C.ar    1  UNL1        0.1213
     17 C         142.8522  143.5615  158.5701 C.3     1  UNL1        0.2525
     18 O         142.3168  144.4667  159.6397 O.3     1  UNL1       -0.4707
     19 C         140.4332  145.5388  161.7140 C.1     1  UNL1        0.1051
     20 N         139.2914  146.4217  161.3056 N.1     1  UNL1       -0.1907
     21 C         140.3655  137.1117  164.6925 C.3     1  UNL1        0.0769
     22 C         138.9433  137.5821  164.6137 C.3     1  UNL1        0.0433
     23 C         138.6419  138.9946  164.2085 C.ar    1  UNL1       -0.0249
     24 C         138.4758  140.0559  165.2553 C.ar    1  UNL1       -0.0043
     25 C         138.1744  141.4683  164.8502 C.ar    1  UNL1        0.0059
     26 C         138.0390  141.8194  163.3982 C.ar    1  UNL1        0.0748
     27 C         138.2050  140.7581  162.3513 C.ar    1  UNL1        0.0233
     28 C         138.5065  139.3456  162.7564 C.ar    1  UNL1       -0.0260
     29 C         138.6725  138.2842  161.7096 C.3     1  UNL1        0.0305
     30 C         138.0165  141.3984  161.0080 C.3     1  UNL1        0.2352
     31 O         137.7339  142.8555  161.2247 O.3     1  UNL1       -0.4404
     32 C         137.7478  143.1157  162.7019 C.2     1  UNL1        0.3413
     33 O         137.5120  144.4398  163.3662 O.2     1  UNL1       -0.2449
@<TRIPOS>BOND
     1    17    18    1
     2    18    11    1
     3    11    12   ar
     4    12    13   ar
     5    13     8    1
     6     8     9    1
     7     8     7    1
     8     7     1    1
     9     1     2    1
    10     2     3    1
    11     3     4    1
    12     4    21    1
    13    21    22    1
    14    22    23    1
    15    23    24   ar
    16    24    25   ar
    17    25    26   ar
    18    26    27   ar
    19    27    28   ar
    20    28    29    1
    21    27    30    1
    22    30    31    1
    23    31    32    1
    24    32    33    2
    25     4     5    1
    26     5     6    1
    27    13    14   ar
    28    14    15   ar
    29    15    16   ar
    30    16    19    1
    31    19    20    3
    32    16    11   ar
    33     6     1    1
    34    28    23   ar
    35    32    26    1
    36     9    10    1
@<TRIPOS>MOLECULE
*****
 33 36 0 0 0
SMALL
GASTEIGER

@<TRIPOS>ATOM
      1 N         143.4630  139.2585  163.1918 N.3     1  UNL1       -0.2679
      2 C         143.2984  139.1308  164.6773 C.3     1  UNL1        0.0897
      3 C         142.0261  138.5758  165.2459 C.3     1  UNL1        0.0897
      4 N         140.9185  138.1485  164.3292 N.3     1  UNL1       -0.2700
      5 C         141.0830  138.2761  162.8437 C.3     1  UNL1        0.0897
      6 C         142.3553  138.8311  162.2750 C.3     1  UNL1        0.0897
      7 C         144.7352  139.8134  162.6231 C.3     1  UNL1        0.1080
      8 C         144.9940  141.2903  162.6650 C.3     1  UNL1        0.1661
      9 O         146.3019  141.8081  163.1858 O.3     1  UNL1       -0.3771
     10 H         146.8621  141.0622  163.4519 H       1  UNL1        0.2109
     11 C         142.8687  143.6340  160.2692 C.ar    1  UNL1        0.1510
     12 C         143.9179  142.6749  160.7481 C.ar    1  UNL1        0.0548
     13 C         143.9448  142.2494  162.1862 C.ar    1  UNL1        0.0901
     14 N         142.9226  142.7831  163.1455 N.ar    1  UNL1       -0.2448
     15 C         141.8734  143.7422  162.6666 C.ar    1  UNL1        0.1118
     16 C         141.8464  144.1677  161.2284 C.ar    1  UNL1        0.1213
     17 C         142.1767  143.1913  157.8044 C.3     1  UNL1        0.2525
     18 O         142.8418  144.0594  158.8310 O.3     1  UNL1       -0.4707
     19 C         140.7972  145.1268  160.7496 C.1     1  UNL1        0.1051
     20 N         139.7481  146.0859  160.2707 N.1     1  UNL1       -0.1907
     21 C         139.6462  137.5935  164.8979 C.3     1  UNL1        0.0769
     22 C         138.6137  138.5193  165.4696 C.3     1  UNL1        0.0433
     23 C         138.4965  139.9228  164.9531 C.ar    1  UNL1       -0.0249
     24 C         137.7542  140.1932  163.6781 C.ar    1  UNL1       -0.0043
     25 C         137.6370  141.5965  163.1616 C.ar    1  UNL1        0.0059
     26 C         138.2621  142.7295  163.9203 C.ar    1  UNL1        0.0748
     27 C         139.0044  142.4592  165.1954 C.ar    1  UNL1        0.0233
     28 C         139.1216  141.0558  165.7119 C.ar    1  UNL1       -0.0260
     29 C         139.8639  140.7853  166.9870 C.3     1  UNL1        0.0305
     30 C         139.5127  143.7683  165.7225 C.3     1  UNL1        0.2352
     31 O         139.0845  144.8478  164.7731 O.3     1  UNL1       -0.4404
     32 C         138.3116  144.2058  163.6593 C.2     1  UNL1        0.3413
     33 O         137.6962  144.9156  162.4898 O.2     1  UNL1       -0.2449
@<TRIPOS>BOND
     1    17    18    1
     2    18    11    1
     3    11    12   ar
     4    12    13   ar
     5    13     8    1
     6     8     9    1
     7     8     7    1
     8     7     1    1
     9     1     2    1
    10     2     3    1
    11     3     4    1
    12     4    21    1
    13    21    22    1
    14    22    23    1
    15    23    24   ar
    16    24    25   ar
    17    25    26   ar
    18    26    27   ar
    19    27    28   ar
    20    28    29    1
    21    27    30    1
    22    30    31    1
    23    31    32    1
    24    32    33    2
    25     4     5    1
    26     5     6    1
    27    13    14   ar
    28    14    15   ar
    29    15    16   ar
    30    16    19    1
    31    19    20    3
    32    16    11   ar
    33     6     1    1
    34    28    23   ar
    35    32    26    1
    36     9    10    1
@<TRIPOS>MOLECULE
*****
 33 36 0 0 0
SMALL
GASTEIGER

@<TRIPOS>ATOM
      1 N         143.1501  139.1141  161.2967 N.3     1  UNL1       -0.2679
      2 C         143.6200  140.4388  160.7728 C.3     1  UNL1        0.0897
      3 C         144.5068  141.3068  161.6155 C.3     1  UNL1        0.0897
      4 N         144.9237  140.8502  162.9822 N.3     1  UNL1       -0.2700
      5 C         144.4538  139.5256  163.5062 C.3     1  UNL1        0.0897
      6 C         143.5670  138.6575  162.6634 C.3     1  UNL1        0.0897
      7 C         142.2633  138.2460  160.4541 C.3     1  UNL1        0.1080
      8 C         140.7726  138.3374  160.5936 C.3     1  UNL1        0.1661
      9 O         139.9068  138.3932  159.3699 O.3     1  UNL1       -0.3771
     10 H         140.4649  138.3605  158.5772 H       1  UNL1        0.2109
     11 C         138.6167  139.5420  163.7002 C.ar    1  UNL1        0.1510
     12 C         139.2416  139.5063  162.3370 C.ar    1  UNL1        0.0548
     13 C         140.1478  138.3730  161.9567 C.ar    1  UNL1        0.0901
     14 N         140.4291  137.2755  162.9397 N.ar    1  UNL1       -0.2448
     15 C         139.8042  137.3112  164.3028 C.ar    1  UNL1        0.1118
     16 C         138.8980  138.4445  164.6832 C.ar    1  UNL1        0.1213
     17 C         137.2963  141.6827  163.0492 C.3     1  UNL1        0.2525
     18 O         137.7106  140.6753  164.0804 O.3     1  UNL1       -0.4707
     19 C         138.2732  138.4801  166.0463 C.1     1  UNL1        0.1051
     20 N         137.6483  138.5157  167.4095 N.1     1  UNL1       -0.1907
     21 C         145.8104  141.7183  163.8248 C.3     1  UNL1        0.0769
     22 C         145.2093  142.7721  164.7069 C.3     1  UNL1        0.0433
     23 C         143.8502  143.3254  164.3951 C.ar    1  UNL1       -0.0249
     24 C         143.6757  144.2906  163.2605 C.ar    1  UNL1       -0.0043
     25 C         142.3167  144.8439  162.9487 C.ar    1  UNL1        0.0059
     26 C         141.1324  144.4318  163.7717 C.ar    1  UNL1        0.0748
     27 C         141.3069  143.4665  164.9065 C.ar    1  UNL1        0.0233
     28 C         142.6658  142.9132  165.2182 C.ar    1  UNL1       -0.0260
     29 C         142.8404  141.9479  166.3530 C.3     1  UNL1        0.0305
     30 C         139.9643  143.2456  165.5379 C.3     1  UNL1        0.2352
     31 O         138.9600  144.0745  164.7934 O.3     1  UNL1       -0.4404
     32 C         139.6819  144.8076  163.7018 C.2     1  UNL1        0.3413
     33 O         139.0621  145.7508  162.7138 O.2     1  UNL1       -0.2449
@<TRIPOS>BOND
     1    17    18    1
     2    18    11    1
     3    11    12   ar
     4    12    13   ar
     5    13     8    1
     6     8     9    1
     7     8     7    1
     8     7     1    1
     9     1     2    1
    10     2     3    1
    11     3     4    1
    12     4    21    1
    13    21    22    1
    14    22    23    1
    15    23    24   ar
    16    24    25   ar
    17    25    26   ar
    18    26    27   ar
    19    27    28   ar
    20    28    29    1
    21    27    30    1
    22    30    31    1
    23    31    32    1
    24    32    33    2
    25     4     5    1
    26     5     6    1
    27    13    14   ar
    28    14    15   ar
    29    15    16   ar
    30    16    19    1
    31    19    20    3
    32    16    11   ar
    33     6     1    1
    34    28    23   ar
    35    32    26    1
    36     9    10    1
@<TRIPOS>MOLECULE
*****
 33 36 0 0 0
SMALL
GASTEIGER

@<TRIPOS>ATOM
      1 N         138.0832  143.3423  162.3833 N.3     1  UNL1       -0.2679
      2 C         138.3082  142.7603  161.0192 C.3     1  UNL1        0.0897
      3 C         138.1806  141.2812  160.8045 C.3     1  UNL1        0.0897
      4 N         137.8281  140.3841  161.9538 N.3     1  UNL1       -0.2700
      5 C         137.6031  140.9661  163.3179 C.3     1  UNL1        0.0897
      6 C         137.7306  142.4452  163.5326 C.3     1  UNL1        0.0897
      7 C         138.2107  144.8213  162.5981 C.3     1  UNL1        0.1080
      8 C         139.5208  145.5060  162.3432 C.3     1  UNL1        0.1661
      9 O         139.5441  146.9351  161.8880 O.3     1  UNL1       -0.3771
     10 H         138.6351  147.2642  161.8091 H       1  UNL1        0.2109
     11 C         142.9620  143.6886  161.5653 C.ar    1  UNL1        0.1510
     12 C         141.6752  144.4331  161.3650 C.ar    1  UNL1        0.0548
     13 C         140.8075  144.7616  162.5436 C.ar    1  UNL1        0.0901
     14 N         141.2264  144.3455  163.9225 N.ar    1  UNL1       -0.2448
     15 C         142.5131  143.6011  164.1228 C.ar    1  UNL1        0.1118
     16 C         143.3810  143.2726  162.9443 C.ar    1  UNL1        0.1213
     17 C         143.5784  142.1111  159.5952 C.3     1  UNL1        0.2525
     18 O         143.8298  143.3602  160.3867 O.3     1  UNL1       -0.4707
     19 C         144.6676  142.5281  163.1447 C.1     1  UNL1        0.1051
     20 N         145.9544  141.7838  163.3451 N.1     1  UNL1       -0.1907
     21 C         137.7006  138.9051  161.7390 C.3     1  UNL1        0.0769
     22 C         138.9311  138.0580  161.6039 C.3     1  UNL1        0.0433
     23 C         140.0181  138.1446  162.6340 C.ar    1  UNL1       -0.0249
     24 C         139.7184  137.8278  164.0691 C.ar    1  UNL1       -0.0043
     25 C         140.8053  137.9144  165.0992 C.ar    1  UNL1        0.0059
     26 C         142.1921  138.3179  164.6940 C.ar    1  UNL1        0.0748
     27 C         142.4918  138.6348  163.2588 C.ar    1  UNL1        0.0233
     28 C         141.4049  138.5482  162.2288 C.ar    1  UNL1       -0.0260
     29 C         141.7046  138.8650  160.7936 C.3     1  UNL1        0.0305
     30 C         143.9427  139.0019  163.1584 C.3     1  UNL1        0.2352
     31 O         144.5397  138.9119  164.5316 O.3     1  UNL1       -0.4404
     32 C         143.4577  138.4892  165.4806 C.2     1  UNL1        0.3413
     33 O         143.6140  138.2752  166.9570 O.2     1  UNL1       -0.2449
@<TRIPOS>BOND
     1    17    18    1
     2    18    11    1
     3    11    12   ar
     4    12    13   ar
     5    13     8    1
     6     8     9    1
     7     8     7    1
     8     7     1    1
     9     1     2    1
    10     2     3    1
    11     3     4    1
    12     4    21    1
    13    21    22    1
    14    22    23    1
    15    23    24   ar
    16    24    25   ar
    17    25    26   ar
    18    26    27   ar
    19    27    28   ar
    20    28    29    1
    21    27    30    1
    22    30    31    1
    23    31    32    1
    24    32    33    2
    25     4     5    1
    26     5     6    1
    27    13    14   ar
    28    14    15   ar
    29    15    16   ar
    30    16    19    1
    31    19    20    3
    32    16    11   ar
    33     6     1    1
    34    28    23   ar
    35    32    26    1
    36     9    10    1
@<TRIPOS>MOLECULE
*****
 33 36 0 0 0
SMALL
GASTEIGER

@<TRIPOS>ATOM
      1 N         142.4986  142.7116  160.2696 N.3     1  UNL1       -0.2679
      2 C         141.0366  142.5800  159.9604 C.3     1  UNL1        0.0897
      3 C         140.0328  143.3938  160.7219 C.3     1  UNL1        0.0897
      4 N         140.4907  144.3393  161.7926 N.3     1  UNL1       -0.2700
      5 C         141.9525  144.4710  162.1018 C.3     1  UNL1        0.0897
      6 C         142.9565  143.6572  161.3402 C.3     1  UNL1        0.0897
      7 C         143.5025  141.8979  159.5081 C.3     1  UNL1        0.1080
      8 C         143.7366  140.4621  159.8738 C.3     1  UNL1        0.1661
      9 O         143.9845  139.4453  158.7992 O.3     1  UNL1       -0.3771
     10 H         143.9604  139.8790  157.9319 H       1  UNL1        0.2109
     11 C         142.6143  138.7355  163.2663 C.ar    1  UNL1        0.1510
     12 C         142.6282  139.1545  161.8260 C.ar    1  UNL1        0.0548
     13 C         143.7228  140.0432  161.3140 C.ar    1  UNL1        0.0901
     14 N         144.8035  140.5129  162.2421 N.ar    1  UNL1       -0.2448
     15 C         144.7896  140.0939  163.6824 C.ar    1  UNL1        0.1118
     16 C         143.6950  139.2052  164.1945 C.ar    1  UNL1        0.1213
     17 C         140.3181  137.5691  162.9247 C.3     1  UNL1        0.2525
     18 O         141.5197  137.8469  163.7784 O.3     1  UNL1       -0.4707
     19 C         143.6812  138.7863  165.6347 C.1     1  UNL1        0.1051
     20 N         143.6674  138.3675  167.0750 N.1     1  UNL1       -0.1907
     21 C         139.4867  145.1530  162.5540 C.3     1  UNL1        0.0769
     22 C         138.4453  144.4691  163.3893 C.3     1  UNL1        0.0433
     23 C         138.8478  143.4041  164.3660 C.ar    1  UNL1       -0.0249
     24 C         139.8405  143.7141  165.4468 C.ar    1  UNL1       -0.0043
     25 C         140.2429  142.6492  166.4235 C.ar    1  UNL1        0.0059
     26 C         139.6526  141.2742  166.3193 C.ar    1  UNL1        0.0748
     27 C         138.6599  140.9641  165.2385 C.ar    1  UNL1        0.0233
     28 C         138.2574  142.0290  164.2618 C.ar    1  UNL1       -0.0260
     29 C         137.2646  141.7190  163.1809 C.3     1  UNL1        0.0305
     30 C         138.2499  139.5285  165.3835 C.3     1  UNL1        0.2352
     31 O         138.9893  138.9514  166.5540 O.3     1  UNL1       -0.4404
     32 C         139.8563  140.0302  167.1324 C.2     1  UNL1        0.3413
     33 O         140.7669  139.8898  168.3160 O.2     1  UNL1       -0.2449
@<TRIPOS>BOND
     1    17    18    1
     2    18    11    1
     3    11    12   ar
     4    12    13   ar
     5    13     8    1
     6     8     9    1
     7     8     7    1
     8     7     1    1
     9     1     2    1
    10     2     3    1
    11     3     4    1
    12     4    21    1
    13    21    22    1
    14    22    23    1
    15    23    24   ar
    16    24    25   ar
    17    25    26   ar
    18    26    27   ar
    19    27    28   ar
    20    28    29    1
    21    27    30    1
    22    30    31    1
    23    31    32    1
    24    32    33    2
    25     4     5    1
    26     5     6    1
    27    13    14   ar
    28    14    15   ar
    29    15    16   ar
    30    16    19    1
    31    19    20    3
    32    16    11   ar
    33     6     1    1
    34    28    23   ar
    35    32    26    1
    36     9    10    1
@<TRIPOS>MOLECULE
*****
 33 36 0 0 0
SMALL
GASTEIGER

@<TRIPOS>ATOM
      1 N         142.2725  138.0893  161.8778 N.3     1  UNL1       -0.2679
      2 C         140.8650  138.0454  161.3610 C.3     1  UNL1        0.0897
      3 C         139.7155  137.9671  162.3214 C.3     1  UNL1        0.0897
      4 N         139.9734  137.9328  163.7987 N.3     1  UNL1       -0.2700
      5 C         141.3808  137.9768  164.3156 C.3     1  UNL1        0.0897
      6 C         142.5304  138.0550  163.3551 C.3     1  UNL1        0.0897
      7 C         143.4221  138.1676  160.9175 C.3     1  UNL1        0.1080
      8 C         143.7821  139.4786  160.2837 C.3     1  UNL1        0.1661
      9 O         144.0961  139.5422  158.8184 O.3     1  UNL1       -0.3771
     10 H         144.0209  138.6553  158.4328 H       1  UNL1        0.2109
     11 C         143.0858  143.1807  161.5327 C.ar    1  UNL1        0.1510
     12 C         143.0399  141.9332  160.7010 C.ar    1  UNL1        0.0548
     13 C         143.8280  140.7260  161.1155 C.ar    1  UNL1        0.0901
     14 N         144.6620  140.7664  162.3616 N.ar    1  UNL1       -0.2448
     15 C         144.7078  142.0138  163.1933 C.ar    1  UNL1        0.1118
     16 C         143.9198  143.2210  162.7789 C.ar    1  UNL1        0.1213
     17 C         141.5436  144.3823  159.8217 C.3     1  UNL1        0.2525
     18 O         142.2978  144.3878  161.1183 O.3     1  UNL1       -0.4707
     19 C         143.9657  144.4684  163.6106 C.1     1  UNL1        0.1051
     20 N         144.0116  145.7159  164.4423 N.1     1  UNL1       -0.1907
     21 C         138.8238  137.8546  164.7591 C.3     1  UNL1        0.0769
     22 C         138.3491  139.0911  165.4631 C.3     1  UNL1        0.0433
     23 C         138.5213  140.4344  164.8178 C.ar    1  UNL1       -0.0249
     24 C         137.6354  140.8373  163.6766 C.ar    1  UNL1       -0.0043
     25 C         137.8075  142.1804  163.0314 C.ar    1  UNL1        0.0059
     26 C         138.8657  143.1207  163.5275 C.ar    1  UNL1        0.0748
     27 C         139.7517  142.7178  164.6689 C.ar    1  UNL1        0.0233
     28 C         139.5795  141.3746  165.3141 C.ar    1  UNL1       -0.0260
     29 C         140.4655  140.9717  166.4555 C.3     1  UNL1        0.0305
     30 C         140.7011  143.8471  164.9398 C.3     1  UNL1        0.2352
     31 O         140.4018  144.9479  163.9659 O.3     1  UNL1       -0.4404
     32 C         139.2675  144.4990  163.0930 C.2     1  UNL1        0.3413
     33 O         138.6444  145.2896  161.9810 O.2     1  UNL1       -0.2449
@<TRIPOS>BOND
     1    17    18    1
     2    18    11    1
     3    11    12   ar
     4    12    13   ar
     5    13     8    1
     6     8     9    1
     7     8     7    1
     8     7     1    1
     9     1     2    1
    10     2     3    1
    11     3     4    1
    12     4    21    1
    13    21    22    1
    14    22    23    1
    15    23    24   ar
    16    24    25   ar
    17    25    26   ar
    18    26    27   ar
    19    27    28   ar
    20    28    29    1
    21    27    30    1
    22    30    31    1
    23    31    32    1
    24    32    33    2
    25     4     5    1
    26     5     6    1
    27    13    14   ar
    28    14    15   ar
    29    15    16   ar
    30    16    19    1
    31    19    20    3
    32    16    11   ar
    33     6     1    1
    34    28    23   ar
    35    32    26    1
    36     9    10    1
@<TRIPOS>MOLECULE
*****
 33 36 0 0 0
SMALL
GASTEIGER

@<TRIPOS>ATOM
      1 N         138.4869  143.5665  163.0922 N.3     1  UNL1       -0.2679
      2 C         138.2174  142.3518  162.2544 C.3     1  UNL1        0.0897
      3 C         138.1361  140.9996  162.8983 C.3     1  UNL1        0.0897
      4 N         138.3243  140.8619  164.3801 N.3     1  UNL1       -0.2700
      5 C         138.5938  142.0766  165.2180 C.3     1  UNL1        0.0897
      6 C         138.6751  143.4289  164.5739 C.3     1  UNL1        0.0897
      7 C         138.5682  144.9188  162.4482 C.3     1  UNL1        0.1080
      8 C         139.8962  145.6003  162.3000 C.3     1  UNL1        0.1661
      9 O         139.9562  147.0627  161.9717 O.3     1  UNL1       -0.3771
     10 H         139.0554  147.4129  161.8896 H       1  UNL1        0.2109
     11 C         142.9808  143.2268  161.5244 C.ar    1  UNL1        0.1510
     12 C         141.7128  144.0078  161.3443 C.ar    1  UNL1        0.0548
     13 C         141.1641  144.8194  162.4802 C.ar    1  UNL1        0.0901
     14 N         141.8833  144.8500  163.7962 N.ar    1  UNL1       -0.2448
     15 C         143.1512  144.0690  163.9763 C.ar    1  UNL1        0.1118
     16 C         143.7000  143.2574  162.8404 C.ar    1  UNL1        0.1213
     17 C         143.1548  140.9694  160.2501 C.3     1  UNL1        0.2525
     18 O         143.5295  142.4152  160.3885 O.3     1  UNL1       -0.4707
     19 C         144.9679  142.4764  163.0205 C.1     1  UNL1        0.1051
     20 N         146.2358  141.6955  163.2008 N.1     1  UNL1       -0.1907
     21 C         138.2430  139.5096  165.0240 C.3     1  UNL1        0.0769
     22 C         139.4034  138.9855  165.8170 C.3     1  UNL1        0.0433
     23 C         139.8020  139.6584  167.0971 C.ar    1  UNL1       -0.0249
     24 C         138.8239  139.7543  168.2302 C.ar    1  UNL1       -0.0043
     25 C         139.2224  140.4271  169.5102 C.ar    1  UNL1        0.0059
     26 C         140.5992  141.0040  169.6571 C.ar    1  UNL1        0.0748
     27 C         141.5774  140.9081  168.5240 C.ar    1  UNL1        0.0233
     28 C         141.1788  140.2353  167.2439 C.ar    1  UNL1       -0.0260
     29 C         142.1570  140.1394  166.1108 C.3     1  UNL1        0.0305
     30 C         142.8546  141.5648  168.9573 C.3     1  UNL1        0.2352
     31 O         142.6657  142.0664  170.3582 O.3     1  UNL1       -0.4404
     32 C         141.2718  141.7199  170.7907 C.2     1  UNL1        0.3413
     33 O         140.6583  142.0341  172.1230 O.2     1  UNL1       -0.2449
@<TRIPOS>BOND
     1    17    18    1
     2    18    11    1
     3    11    12   ar
     4    12    13   ar
     5    13     8    1
     6     8     9    1
     7     8     7    1
     8     7     1    1
     9     1     2    1
    10     2     3    1
    11     3     4    1
    12     4    21    1
    13    21    22    1
    14    22    23    1
    15    23    24   ar
    16    24    25   ar
    17    25    26   ar
    18    26    27   ar
    19    27    28   ar
    20    28    29    1
    21    27    30    1
    22    30    31    1
    23    31    32    1
    24    32    33    2
    25     4     5    1
    26     5     6    1
    27    13    14   ar
    28    14    15   ar
    29    15    16   ar
    30    16    19    1
    31    19    20    3
    32    16    11   ar
    33     6     1    1
    34    28    23   ar
    35    32    26    1
    36     9    10    1
@<TRIPOS>MOLECULE
*****
 33 36 0 0 0
SMALL
GASTEIGER

@<TRIPOS>ATOM
      1 N         142.9551  138.8709  161.9509 N.3     1  UNL1       -0.2679
      2 C         141.6824  138.2965  161.4028 C.3     1  UNL1        0.0897
      3 C         140.6075  137.8272  162.3378 C.3     1  UNL1        0.0897
      4 N         140.8052  137.9323  163.8210 N.3     1  UNL1       -0.2700
      5 C         142.0778  138.5066  164.3692 C.3     1  UNL1        0.0897
      6 C         143.1528  138.9759  163.4341 C.3     1  UNL1        0.0897
      7 C         144.0300  139.3402  161.0159 C.3     1  UNL1        0.1080
      8 C         143.6746  140.1832  159.8272 C.3     1  UNL1        0.1661
      9 O         144.1237  139.7735  158.4560 O.3     1  UNL1       -0.3771
     10 H         144.6287  138.9475  158.5145 H       1  UNL1        0.2109
     11 C         142.5123  143.7302  161.1755 C.ar    1  UNL1        0.1510
     12 C         143.3168  142.4774  160.9928 C.ar    1  UNL1        0.0548
     13 C         142.8701  141.4360  160.0099 C.ar    1  UNL1        0.0901
     14 N         141.6190  141.6473  159.2099 N.ar    1  UNL1       -0.2448
     15 C         140.8146  142.9001  159.3927 C.ar    1  UNL1        0.1118
     16 C         141.2612  143.9416  160.3755 C.ar    1  UNL1        0.1213
     17 C         144.0632  144.4650  163.1261 C.3     1  UNL1        0.2525
     18 O         142.9589  144.7717  162.1584 O.3     1  UNL1       -0.4707
     19 C         140.4567  145.1943  160.5582 C.1     1  UNL1        0.1051
     20 N         139.6523  146.4471  160.7409 N.1     1  UNL1       -0.1907
     21 C         139.7302  137.4630  164.7560 C.3     1  UNL1        0.0769
     22 C         138.9499  138.4587  165.5620 C.3     1  UNL1        0.0433
     23 C         138.7339  139.8463  165.0344 C.ar    1  UNL1       -0.0249
     24 C         137.8818  140.0624  163.8192 C.ar    1  UNL1       -0.0043
     25 C         137.6658  141.4498  163.2916 C.ar    1  UNL1        0.0059
     26 C         138.3020  142.6212  163.9794 C.ar    1  UNL1        0.0748
     27 C         139.1543  142.4051  165.1948 C.ar    1  UNL1        0.0233
     28 C         139.3702  141.0177  165.7223 C.ar    1  UNL1       -0.0260
     29 C         140.2225  140.8015  166.9377 C.3     1  UNL1        0.0305
     30 C         139.6484  143.7434  165.6584 C.3     1  UNL1        0.2352
     31 O         139.1015  144.7865  164.7295 O.3     1  UNL1       -0.4404
     32 C         138.2695  144.0930  163.6919 C.2     1  UNL1        0.3413
     33 O         137.5339  144.7551  162.5647 O.2     1  UNL1       -0.2449
@<TRIPOS>BOND
     1    17    18    1
     2    18    11    1
     3    11    12   ar
     4    12    13   ar
     5    13     8    1
     6     8     9    1
     7     8     7    1
     8     7     1    1
     9     1     2    1
    10     2     3    1
    11     3     4    1
    12     4    21    1
    13    21    22    1
    14    22    23    1
    15    23    24   ar
    16    24    25   ar
    17    25    26   ar
    18    26    27   ar
    19    27    28   ar
    20    28    29    1
    21    27    30    1
    22    30    31    1
    23    31    32    1
    24    32    33    2
    25     4     5    1
    26     5     6    1
    27    13    14   ar
    28    14    15   ar
    29    15    16   ar
    30    16    19    1
    31    19    20    3
    32    16    11   ar
    33     6     1    1
    34    28    23   ar
    35    32    26    1
    36     9    10    1
