@<TRIPOS>MOLECULE
*****
 24 26 0 0 0
SMALL
GASTEIGER

@<TRIPOS>ATOM
      1 C         141.4813  140.5692  165.4475 C.ar    1  UNL1        0.0479
      2 C         142.4938  140.2773  164.3800 C.ar    1  UNL1        0.0145
      3 C         143.6397  139.3525  164.6658 C.ar    1  UNL1        0.0013
      4 C         143.7731  138.7196  166.0192 C.ar    1  UNL1        0.0001
      5 C         142.7605  139.0115  167.0868 C.ar    1  UNL1        0.0012
      6 C         141.6147  139.9363  166.8009 C.ar    1  UNL1        0.0140
      7 N         136.7974  141.4208  163.3652 N.3     1  UNL1       -0.3208
      8 C         137.9935  141.9198  164.1205 C.3     1  UNL1        0.0709
      9 C         138.0436  143.3435  164.5900 C.3     1  UNL1        0.0190
     10 C         139.2396  143.8425  165.3454 C.3     1  UNL1        0.0228
     11 C         140.3855  142.9177  165.6312 C.3     1  UNL1        0.0909
     12 N         140.3354  141.4940  165.1617 N.pl3   1  UNL1       -0.3061
     13 C         139.1394  140.9951  164.4064 C.3     1  UNL1        0.1062
     14 H         136.1207  142.1770  163.2620 H       1  UNL1        0.1189
     15 H         136.3696  140.6493  163.8771 H       1  UNL1        0.1189
     16 C         140.6021  140.2282  167.8685 C.2     1  UNL1        0.0124
     17 C         140.9167  141.2193  168.9496 C.2     1  UNL1        0.0873
     18 S         142.1944  141.9920  169.0928 S.3     1  UNL1       -0.0254
     19 C         142.0760  142.8619  170.3091 C.2     1  UNL1        0.2832
     20 O         143.1245  143.8019  170.8261 O.2     1  UNL1       -0.2622
     21 N         140.7253  142.6268  170.9176 N.am    1  UNL1       -0.2425
     22 C         140.0088  141.6116  170.0774 C.2     1  UNL1        0.2583
     23 O         138.6270  141.0818  170.3220 O.2     1  UNL1       -0.2692
     24 H         140.3712  143.0624  171.7264 H       1  UNL1        0.1587
@<TRIPOS>BOND
     1     8     7    1
     2     8     9    1
     3     9    10    1
     4    10    11    1
     5    11    12    1
     6    12     1    1
     7     1     2   ar
     8     2     3   ar
     9     3     4   ar
    10     4     5   ar
    11     5     6   ar
    12     6    16    1
    13    16    17    2
    14    17    18    1
    15    18    19    1
    16    19    20    2
    17    19    21   am
    18    21    22   am
    19    22    23    2
    20    12    13    1
    21    13     8    1
    22     6     1   ar
    23    22    17    1
    24     7    14    1
    25     7    15    1
    26    21    24    1
@<TRIPOS>MOLECULE
*****
 24 26 0 0 0
SMALL
GASTEIGER

@<TRIPOS>ATOM
      1 C         141.6964  141.0835  165.4293 C.ar    1  UNL1        0.0479
      2 C         141.9952  140.0400  164.3940 C.ar    1  UNL1        0.0145
      3 C         142.7747  138.8141  164.7678 C.ar    1  UNL1        0.0013
      4 C         143.2555  138.6319  166.1769 C.ar    1  UNL1        0.0001
      5 C         142.9567  139.6754  167.2122 C.ar    1  UNL1        0.0012
      6 C         142.1772  140.9012  166.8384 C.ar    1  UNL1        0.0140
      7 N         141.5284  145.8650  163.4022 N.3     1  UNL1       -0.3208
      8 C         140.8329  144.7001  164.0419 C.3     1  UNL1        0.0709
      9 C         139.3579  144.7610  164.3079 C.3     1  UNL1        0.0190
     10 C         138.6625  143.5960  164.9476 C.3     1  UNL1        0.0228
     11 C         139.4419  142.3702  165.3214 C.3     1  UNL1        0.0909
     12 N         140.9169  142.3093  165.0555 N.pl3   1  UNL1       -0.3061
     13 C         141.6124  143.4743  164.4157 C.3     1  UNL1        0.1062
     14 H         140.8515  146.6053  163.2172 H       1  UNL1        0.1189
     15 H         141.9542  145.5666  162.5246 H       1  UNL1        0.1189
     16 C         141.8785  141.9448  167.8737 C.2     1  UNL1        0.0124
     17 C         140.7763  141.7223  168.8665 C.2     1  UNL1        0.0873
     18 S         139.8927  140.5127  168.9467 S.3     1  UNL1       -0.0254
     19 C         138.9345  140.7132  170.0833 C.2     1  UNL1        0.2832
     20 O         137.8716  139.7495  170.5207 O.2     1  UNL1       -0.2622
     21 N         139.2259  142.0466  170.7055 N.am    1  UNL1       -0.2425
     22 C         140.3641  142.6702  169.9535 C.2     1  UNL1        0.2583
     23 O         140.9818  144.0071  170.2385 O.2     1  UNL1       -0.2692
     24 H         138.7530  142.4429  171.4727 H       1  UNL1        0.1587
@<TRIPOS>BOND
     1     8     7    1
     2     8     9    1
     3     9    10    1
     4    10    11    1
     5    11    12    1
     6    12     1    1
     7     1     2   ar
     8     2     3   ar
     9     3     4   ar
    10     4     5   ar
    11     5     6   ar
    12     6    16    1
    13    16    17    2
    14    17    18    1
    15    18    19    1
    16    19    20    2
    17    19    21   am
    18    21    22   am
    19    22    23    2
    20    12    13    1
    21    13     8    1
    22     6     1   ar
    23    22    17    1
    24     7    14    1
    25     7    15    1
    26    21    24    1
@<TRIPOS>MOLECULE
*****
 24 26 0 0 0
SMALL
GASTEIGER

@<TRIPOS>ATOM
      1 C         142.4521  141.9737  167.6450 C.ar    1  UNL1        0.0479
      2 C         143.2053  142.1748  168.9265 C.ar    1  UNL1        0.0145
      3 C         142.5573  142.8939  170.0724 C.ar    1  UNL1        0.0013
      4 C         141.1561  143.4117  169.9368 C.ar    1  UNL1        0.0001
      5 C         140.4029  143.2106  168.6553 C.ar    1  UNL1        0.0012
      6 C         141.0509  142.4915  167.5094 C.ar    1  UNL1        0.0140
      7 N         145.2852  142.0792  163.2904 N.3     1  UNL1       -0.3208
      8 C         144.5166  141.3074  164.3218 C.3     1  UNL1        0.0709
      9 C         144.3961  139.8167  164.2073 C.3     1  UNL1        0.0190
     10 C         143.6276  139.0449  165.2386 C.3     1  UNL1        0.0228
     11 C         142.9796  139.7639  166.3845 C.3     1  UNL1        0.0909
     12 N         143.1001  141.2546  166.4991 N.pl3   1  UNL1       -0.3061
     13 C         143.8686  142.0264  165.4677 C.3     1  UNL1        0.1062
     14 H         145.6546  141.4362  162.5901 H       1  UNL1        0.1189
     15 H         146.0567  142.5723  163.7398 H       1  UNL1        0.1189
     16 C         140.2977  142.2904  166.2279 C.2     1  UNL1        0.0124
     17 C         139.3981  141.1011  166.0654 C.2     1  UNL1        0.0873
     18 S         139.1528  140.0345  167.0913 S.3     1  UNL1       -0.0254
     19 C         138.1889  139.0438  166.5084 C.2     1  UNL1        0.2832
     20 O         137.6671  137.8147  167.1917 O.2     1  UNL1       -0.2622
     21 N         137.8386  139.4981  165.1225 N.am    1  UNL1       -0.2425
     22 C         138.5859  140.7696  164.8487 C.2     1  UNL1        0.2583
     23 O         138.5307  141.5692  163.5808 O.2     1  UNL1       -0.2692
     24 H         137.2258  139.0419  164.5015 H       1  UNL1        0.1587
@<TRIPOS>BOND
     1     8     7    1
     2     8     9    1
     3     9    10    1
     4    10    11    1
     5    11    12    1
     6    12     1    1
     7     1     2   ar
     8     2     3   ar
     9     3     4   ar
    10     4     5   ar
    11     5     6   ar
    12     6    16    1
    13    16    17    2
    14    17    18    1
    15    18    19    1
    16    19    20    2
    17    19    21   am
    18    21    22   am
    19    22    23    2
    20    12    13    1
    21    13     8    1
    22     6     1   ar
    23    22    17    1
    24     7    14    1
    25     7    15    1
    26    21    24    1
@<TRIPOS>MOLECULE
*****
 24 26 0 0 0
SMALL
GASTEIGER

@<TRIPOS>ATOM
      1 C         140.8076  140.3032  165.4673 C.ar    1  UNL1        0.0479
      2 C         139.7545  140.1447  164.4110 C.ar    1  UNL1        0.0145
      3 C         138.3841  139.6627  164.7846 C.ar    1  UNL1        0.0013
      4 C         138.0668  139.3392  166.2146 C.ar    1  UNL1        0.0001
      5 C         139.1199  139.4978  167.2709 C.ar    1  UNL1        0.0012
      6 C         140.4903  139.9798  166.8973 C.ar    1  UNL1        0.0140
      7 N         144.1708  144.2017  164.7665 N.3     1  UNL1       -0.3208
      8 C         143.8596  142.7345  164.7433 C.3     1  UNL1        0.0709
      9 C         144.9189  141.7494  164.3466 C.3     1  UNL1        0.0190
     10 C         144.6077  140.2822  164.3234 C.3     1  UNL1        0.0228
     11 C         143.2374  139.8001  164.6970 C.3     1  UNL1        0.0909
     12 N         142.1781  140.7853  165.0937 N.pl3   1  UNL1       -0.3061
     13 C         142.4893  142.2525  165.1169 C.3     1  UNL1        0.1062
     14 H         145.1407  144.3481  164.4866 H       1  UNL1        0.1189
     15 H         144.0307  144.5641  165.7096 H       1  UNL1        0.1189
     16 C         141.5435  140.1384  167.9536 C.2     1  UNL1        0.0124
     17 C         141.5333  141.3425  168.8480 C.2     1  UNL1        0.0873
     18 S         140.5387  142.4646  168.8046 S.3     1  UNL1       -0.0254
     19 C         140.9067  143.4516  169.8726 C.2     1  UNL1        0.2832
     20 O         140.1802  144.7268  170.1827 O.2     1  UNL1       -0.2622
     21 N         142.1286  142.9395  170.5760 N.am    1  UNL1       -0.2425
     22 C         142.5159  141.6361  169.9427 C.2     1  UNL1        0.2583
     23 O         143.6811  140.7770  170.3352 O.2     1  UNL1       -0.2692
     24 H         142.5946  143.3814  171.3222 H       1  UNL1        0.1587
@<TRIPOS>BOND
     1     8     7    1
     2     8     9    1
     3     9    10    1
     4    10    11    1
     5    11    12    1
     6    12     1    1
     7     1     2   ar
     8     2     3   ar
     9     3     4   ar
    10     4     5   ar
    11     5     6   ar
    12     6    16    1
    13    16    17    2
    14    17    18    1
    15    18    19    1
    16    19    20    2
    17    19    21   am
    18    21    22   am
    19    22    23    2
    20    12    13    1
    21    13     8    1
    22     6     1   ar
    23    22    17    1
    24     7    14    1
    25     7    15    1
    26    21    24    1
@<TRIPOS>MOLECULE
*****
 24 26 0 0 0
SMALL
GASTEIGER

@<TRIPOS>ATOM
      1 C         142.0255  140.9043  165.2923 C.ar    1  UNL1        0.0479
      2 C         143.1844  140.0116  164.9611 C.ar    1  UNL1        0.0145
      3 C         144.4454  140.5972  164.3979 C.ar    1  UNL1        0.0013
      4 C         144.5473  142.0757  164.1661 C.ar    1  UNL1        0.0001
      5 C         143.3883  142.9685  164.4974 C.ar    1  UNL1        0.0012
      6 C         142.1274  142.3828  165.0605 C.ar    1  UNL1        0.0140
      7 N         138.9882  139.8407  169.3720 N.3     1  UNL1       -0.3208
      8 C         139.2459  139.7868  167.8953 C.3     1  UNL1        0.0709
      9 C         138.2427  139.1474  166.9817 C.3     1  UNL1        0.0190
     10 C         138.5005  139.0935  165.5049 C.3     1  UNL1        0.0228
     11 C         139.7613  139.6792  164.9418 C.3     1  UNL1        0.0909
     12 N         140.7645  140.3186  165.8554 N.pl3   1  UNL1       -0.3061
     13 C         140.5068  140.3725  167.3321 C.3     1  UNL1        0.1062
     14 H         138.0917  139.3994  169.5770 H       1  UNL1        0.1189
     15 H         138.9662  140.8134  169.6780 H       1  UNL1        0.1189
     16 C         140.9684  143.2756  165.3918 C.2     1  UNL1        0.0124
     17 C         139.9026  143.5320  164.3679 C.2     1  UNL1        0.0873
     18 S         139.8611  142.9685  162.9783 S.3     1  UNL1       -0.0254
     19 C         138.6240  143.4852  162.3054 C.2     1  UNL1        0.2832
     20 O         138.1867  143.1737  160.9048 O.2     1  UNL1       -0.2622
     21 N         137.9010  144.3680  163.2790 N.am    1  UNL1       -0.2425
     22 C         138.6912  144.3969  164.5537 C.2     1  UNL1        0.2583
     23 O         138.3330  145.1573  165.7960 O.2     1  UNL1       -0.2692
     24 H         137.0562  144.8447  163.1110 H       1  UNL1        0.1587
@<TRIPOS>BOND
     1     8     7    1
     2     8     9    1
     3     9    10    1
     4    10    11    1
     5    11    12    1
     6    12     1    1
     7     1     2   ar
     8     2     3   ar
     9     3     4   ar
    10     4     5   ar
    11     5     6   ar
    12     6    16    1
    13    16    17    2
    14    17    18    1
    15    18    19    1
    16    19    20    2
    17    19    21   am
    18    21    22   am
    19    22    23    2
    20    12    13    1
    21    13     8    1
    22     6     1   ar
    23    22    17    1
    24     7    14    1
    25     7    15    1
    26    21    24    1
@<TRIPOS>MOLECULE
*****
 24 26 0 0 0
SMALL
GASTEIGER

@<TRIPOS>ATOM
      1 C         140.3071  140.4194  165.8233 C.ar    1  UNL1        0.0479
      2 C         139.8956  139.3590  164.8455 C.ar    1  UNL1        0.0145
      3 C         138.8358  138.3652  165.2187 C.ar    1  UNL1        0.0013
      4 C         138.1876  138.4318  166.5698 C.ar    1  UNL1        0.0001
      5 C         138.5992  139.4922  167.5477 C.ar    1  UNL1        0.0012
      6 C         139.6589  140.4860  167.1744 C.ar    1  UNL1        0.0140
      7 N         141.6565  145.0205  163.8210 N.3     1  UNL1       -0.3208
      8 C         142.0415  143.7138  164.4489 C.3     1  UNL1        0.0709
      9 C         143.4862  143.4009  164.7036 C.3     1  UNL1        0.0190
     10 C         143.8713  142.0942  165.3316 C.3     1  UNL1        0.0228
     11 C         142.8116  141.1004  165.7048 C.3     1  UNL1        0.0909
     12 N         141.3669  141.4133  165.4501 N.pl3   1  UNL1       -0.3061
     13 C         140.9819  142.7200  164.8222 C.3     1  UNL1        0.1062
     14 H         142.4962  145.5688  163.6348 H       1  UNL1        0.1189
     15 H         141.0474  145.5365  164.4560 H       1  UNL1        0.1189
     16 C         140.0705  141.5465  168.1523 C.2     1  UNL1        0.0124
     17 C         141.1295  141.2545  169.1737 C.2     1  UNL1        0.0873
     18 S         141.8621  139.9558  169.3377 S.3     1  UNL1       -0.0254
     19 C         142.8272  140.1086  170.4758 C.2     1  UNL1        0.2832
     20 O         143.7640  139.0536  170.9851 O.2     1  UNL1       -0.2622
     21 N         142.6911  141.5017  171.0152 N.am    1  UNL1       -0.2425
     22 C         141.6418  142.2098  170.2104 C.2     1  UNL1        0.2583
     23 O         141.1851  143.6249  170.4078 O.2     1  UNL1       -0.2692
     24 H         143.2009  141.8840  171.7656 H       1  UNL1        0.1587
@<TRIPOS>BOND
     1     8     7    1
     2     8     9    1
     3     9    10    1
     4    10    11    1
     5    11    12    1
     6    12     1    1
     7     1     2   ar
     8     2     3   ar
     9     3     4   ar
    10     4     5   ar
    11     5     6   ar
    12     6    16    1
    13    16    17    2
    14    17    18    1
    15    18    19    1
    16    19    20    2
    17    19    21   am
    18    21    22   am
    19    22    23    2
    20    12    13    1
    21    13     8    1
    22     6     1   ar
    23    22    17    1
    24     7    14    1
    25     7    15    1
    26    21    24    1
@<TRIPOS>MOLECULE
*****
 24 26 0 0 0
SMALL
GASTEIGER

@<TRIPOS>ATOM
      1 C         140.4869  139.6567  167.0618 C.ar    1  UNL1        0.0479
      2 C         139.0301  139.6336  167.4181 C.ar    1  UNL1        0.0145
      3 C         138.0513  138.9265  166.5280 C.ar    1  UNL1        0.0013
      4 C         138.5296  138.2424  165.2817 C.ar    1  UNL1        0.0001
      5 C         139.9865  138.2655  164.9254 C.ar    1  UNL1        0.0012
      6 C         140.9651  138.9726  165.8155 C.ar    1  UNL1        0.0140
      7 N         143.5711  139.6700  171.2436 N.3     1  UNL1       -0.3208
      8 C         143.0077  140.3704  170.0428 C.3     1  UNL1        0.0709
      9 C         143.4230  141.7779  169.7320 C.3     1  UNL1        0.0190
     10 C         142.8596  142.4783  168.5311 C.3     1  UNL1        0.0228
     11 C         141.8809  141.7712  167.6411 C.3     1  UNL1        0.0909
     12 N         141.4656  140.3638  167.9519 N.pl3   1  UNL1       -0.3061
     13 C         142.0290  139.6634  169.1527 C.3     1  UNL1        0.1062
     14 H         144.2148  140.2940  171.7302 H       1  UNL1        0.1189
     15 H         144.0702  138.8320  170.9454 H       1  UNL1        0.1189
     16 C         142.4221  138.9957  165.4592 C.2     1  UNL1        0.0124
     17 C         142.9483  140.0414  164.5213 C.2     1  UNL1        0.0873
     18 S         142.1424  141.1229  163.8648 S.3     1  UNL1       -0.0254
     19 C         143.0690  141.9391  163.0130 C.2     1  UNL1        0.2832
     20 O         142.6845  143.1242  162.1778 O.2     1  UNL1       -0.2622
     21 N         144.4474  141.3620  163.1431 N.am    1  UNL1       -0.2425
     22 C         144.3728  140.1892  164.0753 C.2     1  UNL1        0.2583
     23 O         145.5212  139.3173  164.4888 O.2     1  UNL1       -0.2692
     24 H         145.2586  141.6946  162.6953 H       1  UNL1        0.1587
@<TRIPOS>BOND
     1     8     7    1
     2     8     9    1
     3     9    10    1
     4    10    11    1
     5    11    12    1
     6    12     1    1
     7     1     2   ar
     8     2     3   ar
     9     3     4   ar
    10     4     5   ar
    11     5     6   ar
    12     6    16    1
    13    16    17    2
    14    17    18    1
    15    18    19    1
    16    19    20    2
    17    19    21   am
    18    21    22   am
    19    22    23    2
    20    12    13    1
    21    13     8    1
    22     6     1   ar
    23    22    17    1
    24     7    14    1
    25     7    15    1
    26    21    24    1
@<TRIPOS>MOLECULE
*****
 24 26 0 0 0
SMALL
GASTEIGER

@<TRIPOS>ATOM
      1 C         138.9653  141.6347  164.8223 C.ar    1  UNL1        0.0479
      2 C         137.8534  142.4689  164.2586 C.ar    1  UNL1        0.0145
      3 C         137.7948  143.9385  164.5533 C.ar    1  UNL1        0.0013
      4 C         138.8481  144.5739  165.4117 C.ar    1  UNL1        0.0001
      5 C         139.9600  143.7396  165.9754 C.ar    1  UNL1        0.0012
      6 C         140.0186  142.2701  165.6806 C.ar    1  UNL1        0.0140
      7 N         140.4111  137.7201  161.7261 N.3     1  UNL1       -0.3208
      8 C         139.7468  138.2078  162.9795 C.3     1  UNL1        0.0709
      9 C         139.1411  137.2259  163.9381 C.3     1  UNL1        0.0190
     10 C         138.4769  137.7136  165.1915 C.3     1  UNL1        0.0228
     11 C         138.4182  139.1832  165.4862 C.3     1  UNL1        0.0909
     12 N         139.0239  140.1650  164.5276 N.pl3   1  UNL1       -0.3061
     13 C         139.6881  139.6774  163.2742 C.3     1  UNL1        0.1062
     14 H         140.3591  136.7022  161.6878 H       1  UNL1        0.1189
     15 H         141.3887  138.0110  161.7242 H       1  UNL1        0.1189
     16 C         141.1305  141.4358  166.2443 C.2     1  UNL1        0.0124
     17 C         140.9764  140.7911  167.5899 C.2     1  UNL1        0.0873
     18 S         139.7751  140.8903  168.4828 S.3     1  UNL1       -0.0254
     19 C         140.0528  140.0944  169.7236 C.2     1  UNL1        0.2832
     20 O         139.1212  139.9203  170.8862 O.2     1  UNL1       -0.2622
     21 N         141.4257  139.5034  169.5976 N.am    1  UNL1       -0.2425
     22 C         141.9965  139.9339  168.2789 C.2     1  UNL1        0.2583
     23 O         143.3498  139.5710  167.7433 O.2     1  UNL1       -0.2692
     24 H         141.8735  138.9330  170.2634 H       1  UNL1        0.1587
@<TRIPOS>BOND
     1     8     7    1
     2     8     9    1
     3     9    10    1
     4    10    11    1
     5    11    12    1
     6    12     1    1
     7     1     2   ar
     8     2     3   ar
     9     3     4   ar
    10     4     5   ar
    11     5     6   ar
    12     6    16    1
    13    16    17    2
    14    17    18    1
    15    18    19    1
    16    19    20    2
    17    19    21   am
    18    21    22   am
    19    22    23    2
    20    12    13    1
    21    13     8    1
    22     6     1   ar
    23    22    17    1
    24     7    14    1
    25     7    15    1
    26    21    24    1
@<TRIPOS>MOLECULE
*****
 24 26 0 0 0
SMALL
GASTEIGER

@<TRIPOS>ATOM
      1 C         142.7507  140.6908  167.0192 C.ar    1  UNL1        0.0479
      2 C         142.9164  139.2584  167.4323 C.ar    1  UNL1        0.0145
      3 C         143.4923  138.2621  166.4701 C.ar    1  UNL1        0.0013
      4 C         143.9025  138.6982  165.0947 C.ar    1  UNL1        0.0001
      5 C         143.7368  140.1307  164.6816 C.ar    1  UNL1        0.0012
      6 C         143.1609  141.1270  165.6438 C.ar    1  UNL1        0.0140
      7 N         143.2984  143.7878  171.1555 N.3     1  UNL1       -0.3208
      8 C         142.4487  143.2356  170.0495 C.3     1  UNL1        0.0709
      9 C         141.0232  143.6796  169.9057 C.3     1  UNL1        0.0190
     10 C         140.1735  143.1274  168.7998 C.3     1  UNL1        0.0228
     11 C         140.7493  142.1312  167.8376 C.3     1  UNL1        0.0909
     12 N         142.1748  141.6871  167.9814 N.pl3   1  UNL1       -0.3061
     13 C         143.0245  142.2393  169.0873 C.3     1  UNL1        0.1062
     14 H         142.7502  144.4461  171.7091 H       1  UNL1        0.1189
     15 H         144.1052  144.2680  170.7569 H       1  UNL1        0.1189
     16 C         142.9952  142.5595  165.2307 C.2     1  UNL1        0.0124
     17 C         141.7842  142.9802  164.4521 C.2     1  UNL1        0.0873
     18 S         140.6614  142.0858  164.0166 S.3     1  UNL1       -0.0254
     19 C         139.6665  142.9221  163.2676 C.2     1  UNL1        0.2832
     20 O         138.3882  142.4330  162.6538 O.2     1  UNL1       -0.2622
     21 N         140.1744  144.3332  163.2402 N.am    1  UNL1       -0.2425
     22 C         141.4832  144.3691  163.9722 C.2     1  UNL1        0.2583
     23 O         142.3404  145.5812  164.1867 O.2     1  UNL1       -0.2692
     24 H         139.7273  145.1010  162.8161 H       1  UNL1        0.1587
@<TRIPOS>BOND
     1     8     7    1
     2     8     9    1
     3     9    10    1
     4    10    11    1
     5    11    12    1
     6    12     1    1
     7     1     2   ar
     8     2     3   ar
     9     3     4   ar
    10     4     5   ar
    11     5     6   ar
    12     6    16    1
    13    16    17    2
    14    17    18    1
    15    18    19    1
    16    19    20    2
    17    19    21   am
    18    21    22   am
    19    22    23    2
    20    12    13    1
    21    13     8    1
    22     6     1   ar
    23    22    17    1
    24     7    14    1
    25     7    15    1
    26    21    24    1
