@<TRIPOS>MOLECULE
*****
 29 32 0 0 0
SMALL
GASTEIGER

@<TRIPOS>ATOM
      1 C         140.9436  140.8037  166.1001 C.3     1  UNL1        0.0415
      2 C         141.4626  139.8842  167.1656 C.3     1  UNL1        0.0377
      3 C         142.8137  139.2501  167.0160 C.3     1  UNL1        0.1424
      4 O         143.6458  139.5353  165.8009 O.3     1  UNL1       -0.3560
      5 C         143.1267  140.4548  164.7355 C.3     1  UNL1        0.1227
      6 C         142.7423  141.3481  163.5935 C.3     1  UNL1        0.0618
      7 C         143.8673  141.3422  162.6014 C.3     1  UNL1        0.1448
      8 O         144.9470  140.4452  163.1301 O.3     1  UNL1       -0.3512
      9 C         144.4893  139.8967  164.4491 C.3     1  UNL1        0.1691
     10 C         141.7757  141.0890  164.8851 C.3     1  UNL1        0.0355
     11 F         137.2683  144.5355  163.1733 F       1  UNL1       -0.2025
     12 C         138.1871  143.6025  163.9050 C.ar    1  UNL1        0.1592
     13 C         139.0668  144.1238  165.0025 C.ar    1  UNL1        0.0325
     14 C         139.9856  143.1908  165.7341 C.ar    1  UNL1        0.0170
     15 C         140.0247  141.7366  165.3684 C.ar    1  UNL1        0.0586
     16 N         139.1451  141.2154  164.2710 N.ar    1  UNL1       -0.2458
     17 C         138.2262  142.1484  163.5392 C.ar    1  UNL1        0.1280
     18 C         139.7925  140.8425  167.0610 C.3     1  UNL1        0.0228
     19 C         139.0530  139.5813  167.3967 C.3     1  UNL1        0.0692
     20 N         138.0899  138.9912  166.4096 N.3     1  UNL1       -0.2937
     21 H         137.9509  139.6902  165.6799 H       1  UNL1        0.1236
     22 C         138.4211  137.7024  165.7173 C.3     1  UNL1        0.0957
     23 C         139.3098  137.7071  164.5089 C.ar    1  UNL1       -0.0055
     24 C         140.7758  137.4249  164.6550 C.ar    1  UNL1       -0.0029
     25 C         141.6645  137.4295  163.4465 C.ar    1  UNL1        0.0006
     26 C         141.0872  137.7164  162.0922 C.ar    1  UNL1        0.0114
     27 C         139.6213  137.9986  161.9461 C.ar    1  UNL1        0.0574
     28 CL        139.0440  138.2854  160.5916 Cl      1  UNL1       -0.0823
     29 C         138.7326  137.9939  163.1545 C.ar    1  UNL1        0.0085
@<TRIPOS>BOND
     1    11    12    1
     2    12    13   ar
     3    13    14   ar
     4    14    15   ar
     5    15     1    1
     6     1    18    1
     7    18    19    1
     8    19    20    1
     9    20    22    1
    10    22    23    1
    11    23    24   ar
    12    24    25   ar
    13    25    26   ar
    14    26    27   ar
    15    27    28    1
    16    27    29   ar
    17     1     2    1
    18     2     3    1
    19     3     4    1
    20     4     5    1
    21     5     6    1
    22     6     7    1
    23     7     8    1
    24     8     9    1
    25     5    10    1
    26    15    16   ar
    27    16    17   ar
    28    17    12   ar
    29    10     1    1
    30    29    23   ar
    31     9     5    1
    32    20    21    1
@<TRIPOS>MOLECULE
*****
 29 32 0 0 0
SMALL
GASTEIGER

@<TRIPOS>ATOM
      1 C         139.9281  139.0601  165.9079 C.3     1  UNL1        0.0415
      2 C         138.5428  138.4856  165.9333 C.3     1  UNL1        0.0377
      3 C         137.6844  138.6514  167.1522 C.3     1  UNL1        0.1424
      4 O         138.2114  139.3916  168.3456 O.3     1  UNL1       -0.3560
      5 C         139.5967  139.9661  168.3202 C.3     1  UNL1        0.1227
      6 C         140.9545  140.5921  168.4405 C.3     1  UNL1        0.0618
      7 C         141.0554  141.2232  169.7975 C.3     1  UNL1        0.1448
      8 O         139.7599  140.9872  170.5159 O.3     1  UNL1       -0.3512
      9 C         138.8584  140.2103  169.6029 C.3     1  UNL1        0.1691
     10 C         140.4551  139.8003  167.1013 C.3     1  UNL1        0.0355
     11 F         145.3974  140.5036  163.9069 F       1  UNL1       -0.2025
     12 C         144.0301  140.1428  164.4071 C.ar    1  UNL1        0.1592
     13 C         143.8448  138.9366  165.2794 C.ar    1  UNL1        0.0325
     14 C         142.4775  138.5757  165.7797 C.ar    1  UNL1        0.0170
     15 C         141.2955  139.4210  165.4076 C.ar    1  UNL1        0.0586
     16 N         141.4808  140.6271  164.5354 N.ar    1  UNL1       -0.2458
     17 C         142.8481  140.9880  164.0351 C.ar    1  UNL1        0.1280
     18 C         139.8760  138.4452  164.5407 C.3     1  UNL1        0.0228
     19 C         138.6879  138.6826  163.6564 C.3     1  UNL1        0.0692
     20 N         138.6955  139.8212  162.6797 N.3     1  UNL1       -0.2937
     21 H         138.4714  139.4269  161.7661 H       1  UNL1        0.1236
     22 C         137.7781  140.9903  162.8837 C.3     1  UNL1        0.0957
     23 C         138.3179  142.2821  163.4220 C.ar    1  UNL1       -0.0055
     24 C         138.5804  142.4310  164.8913 C.ar    1  UNL1       -0.0029
     25 C         139.1202  143.7230  165.4296 C.ar    1  UNL1        0.0006
     26 C         139.3974  144.8658  164.4986 C.ar    1  UNL1        0.0114
     27 C         139.1349  144.7170  163.0293 C.ar    1  UNL1        0.0574
     28 CL        139.4121  145.8599  162.0982 Cl      1  UNL1       -0.0823
     29 C         138.5951  143.4251  162.4910 C.ar    1  UNL1        0.0085
@<TRIPOS>BOND
     1    11    12    1
     2    12    13   ar
     3    13    14   ar
     4    14    15   ar
     5    15     1    1
     6     1    18    1
     7    18    19    1
     8    19    20    1
     9    20    22    1
    10    22    23    1
    11    23    24   ar
    12    24    25   ar
    13    25    26   ar
    14    26    27   ar
    15    27    28    1
    16    27    29   ar
    17     1     2    1
    18     2     3    1
    19     3     4    1
    20     4     5    1
    21     5     6    1
    22     6     7    1
    23     7     8    1
    24     8     9    1
    25     5    10    1
    26    15    16   ar
    27    16    17   ar
    28    17    12   ar
    29    10     1    1
    30    29    23   ar
    31     9     5    1
    32    20    21    1
@<TRIPOS>MOLECULE
*****
 29 32 0 0 0
SMALL
GASTEIGER

@<TRIPOS>ATOM
      1 C         139.1192  140.6587  165.4022 C.3     1  UNL1        0.0415
      2 C         138.2695  139.4511  165.6661 C.3     1  UNL1        0.0377
      3 C         138.1866  138.8805  167.0508 C.3     1  UNL1        0.1424
      4 O         138.9535  139.5173  168.1717 O.3     1  UNL1       -0.3560
      5 C         139.8032  140.7249  167.9078 C.3     1  UNL1        0.1227
      6 C         140.6897  141.9299  167.7966 C.3     1  UNL1        0.0618
      7 C         141.2526  142.2183  169.1567 C.3     1  UNL1        0.1448
      8 O         140.7141  141.1916  170.1085 O.3     1  UNL1       -0.3512
      9 C         139.8183  140.2686  169.3366 C.3     1  UNL1        0.1691
     10 C         139.8861  141.2956  166.5231 C.3     1  UNL1        0.0355
     11 F         141.7733  145.1453  162.4312 F       1  UNL1       -0.2025
     12 C         141.1097  144.0237  163.1740 C.ar    1  UNL1        0.1592
     13 C         141.8255  142.7182  163.3566 C.ar    1  UNL1        0.0325
     14 C         141.1620  141.5965  164.0993 C.ar    1  UNL1        0.0170
     15 C         139.7827  141.7804  164.6595 C.ar    1  UNL1        0.0586
     16 N         139.0670  143.0858  164.4769 N.ar    1  UNL1       -0.2458
     17 C         139.7305  144.2076  163.7341 C.ar    1  UNL1        0.1280
     18 C         138.5828  140.4114  164.0235 C.3     1  UNL1        0.0228
     19 C         138.4463  139.0078  163.5124 C.3     1  UNL1        0.0692
     20 N         139.4366  138.4707  162.5219 N.3     1  UNL1       -0.2937
     21 H         139.8912  139.2769  162.0933 H       1  UNL1        0.1236
     22 C         140.5289  137.5493  162.9778 C.3     1  UNL1        0.0957
     23 C         141.7382  138.1045  163.6701 C.ar    1  UNL1       -0.0055
     24 C         142.9265  138.5439  162.8670 C.ar    1  UNL1       -0.0029
     25 C         144.1358  139.0991  163.5594 C.ar    1  UNL1        0.0006
     26 C         144.1568  139.2150  165.0547 C.ar    1  UNL1        0.0114
     27 C         142.9685  138.7756  165.8578 C.ar    1  UNL1        0.0574
     28 CL        142.9895  138.8915  167.3532 Cl      1  UNL1       -0.0823
     29 C         141.7592  138.2204  165.1655 C.ar    1  UNL1        0.0085
@<TRIPOS>BOND
     1    11    12    1
     2    12    13   ar
     3    13    14   ar
     4    14    15   ar
     5    15     1    1
     6     1    18    1
     7    18    19    1
     8    19    20    1
     9    20    22    1
    10    22    23    1
    11    23    24   ar
    12    24    25   ar
    13    25    26   ar
    14    26    27   ar
    15    27    28    1
    16    27    29   ar
    17     1     2    1
    18     2     3    1
    19     3     4    1
    20     4     5    1
    21     5     6    1
    22     6     7    1
    23     7     8    1
    24     8     9    1
    25     5    10    1
    26    15    16   ar
    27    16    17   ar
    28    17    12   ar
    29    10     1    1
    30    29    23   ar
    31     9     5    1
    32    20    21    1
@<TRIPOS>MOLECULE
*****
 29 32 0 0 0
SMALL
GASTEIGER

@<TRIPOS>ATOM
      1 C         138.8925  140.9899  165.3875 C.3     1  UNL1        0.0415
      2 C         138.1112  139.7262  165.5935 C.3     1  UNL1        0.0377
      3 C         138.2545  138.9559  166.8726 C.3     1  UNL1        0.1424
      4 O         139.1790  139.4494  167.9458 O.3     1  UNL1       -0.3560
      5 C         139.9603  140.7132  167.7399 C.3     1  UNL1        0.1227
      6 C         140.8017  141.9534  167.6770 C.3     1  UNL1        0.0618
      7 C         141.5671  142.0598  168.9626 C.3     1  UNL1        0.1448
      8 O         141.1987  140.8855  169.8200 O.3     1  UNL1       -0.3512
      9 C         140.2056  140.0532  169.0643 C.3     1  UNL1        0.1691
     10 C         139.8170  141.4835  166.4607 C.3     1  UNL1        0.0355
     11 F         140.9856  145.9590  162.7554 F       1  UNL1       -0.2025
     12 C         140.4624  144.7167  163.4134 C.ar    1  UNL1        0.1592
     13 C         139.1898  144.7669  164.2059 C.ar    1  UNL1        0.0325
     14 C         138.6665  143.5247  164.8640 C.ar    1  UNL1        0.0170
     15 C         139.4158  142.2322  164.7295 C.ar    1  UNL1        0.0586
     16 N         140.6883  142.1820  163.9370 N.ar    1  UNL1       -0.2458
     17 C         141.2117  143.4243  163.2789 C.ar    1  UNL1        0.1280
     18 C         138.1498  140.9279  164.0858 C.3     1  UNL1        0.0228
     19 C         138.2921  139.7275  163.1976 C.3     1  UNL1        0.0692
     20 N         139.4982  139.5849  162.3171 N.3     1  UNL1       -0.2937
     21 H         139.9952  140.4749  162.3522 H       1  UNL1        0.1236
     22 C         140.5091  138.5129  162.5979 C.3     1  UNL1        0.0957
     23 C         141.6046  138.7572  163.5930 C.ar    1  UNL1       -0.0055
     24 C         141.4351  138.3193  165.0176 C.ar    1  UNL1       -0.0029
     25 C         142.5306  138.5637  166.0128 C.ar    1  UNL1        0.0006
     26 C         143.7955  139.2459  165.5833 C.ar    1  UNL1        0.0114
     27 C         143.9650  139.6838  164.1586 C.ar    1  UNL1        0.0574
     28 CL        145.2300  140.3660  163.7291 Cl      1  UNL1       -0.0823
     29 C         142.8695  139.4395  163.1635 C.ar    1  UNL1        0.0085
@<TRIPOS>BOND
     1    11    12    1
     2    12    13   ar
     3    13    14   ar
     4    14    15   ar
     5    15     1    1
     6     1    18    1
     7    18    19    1
     8    19    20    1
     9    20    22    1
    10    22    23    1
    11    23    24   ar
    12    24    25   ar
    13    25    26   ar
    14    26    27   ar
    15    27    28    1
    16    27    29   ar
    17     1     2    1
    18     2     3    1
    19     3     4    1
    20     4     5    1
    21     5     6    1
    22     6     7    1
    23     7     8    1
    24     8     9    1
    25     5    10    1
    26    15    16   ar
    27    16    17   ar
    28    17    12   ar
    29    10     1    1
    30    29    23   ar
    31     9     5    1
    32    20    21    1
@<TRIPOS>MOLECULE
*****
 29 32 0 0 0
SMALL
GASTEIGER

@<TRIPOS>ATOM
      1 C         141.1656  141.2094  165.1667 C.3     1  UNL1        0.0415
      2 C         140.1600  141.4039  164.0708 C.3     1  UNL1        0.0377
      3 C         140.6151  141.5090  162.6454 C.3     1  UNL1        0.1424
      4 O         142.0757  141.4196  162.3158 O.3     1  UNL1       -0.3560
      5 C         143.0813  141.2251  163.4117 C.3     1  UNL1        0.1227
      6 C         144.1970  141.0326  164.3957 C.3     1  UNL1        0.0618
      7 C         145.4878  141.0010  163.6324 C.3     1  UNL1        0.1448
      8 O         145.1700  141.1740  162.1767 O.3     1  UNL1       -0.3512
      9 C         143.6826  141.3125  162.0403 C.3     1  UNL1        0.1691
     10 C         142.6263  141.1200  164.8371 C.3     1  UNL1        0.0355
     11 F         143.4323  140.4662  170.6722 F       1  UNL1       -0.2025
     12 C         142.8656  140.6520  169.2958 C.ar    1  UNL1        0.1592
     13 C         142.7783  142.0257  168.6998 C.ar    1  UNL1        0.0325
     14 C         142.2117  142.2116  167.3234 C.ar    1  UNL1        0.0170
     15 C         141.7323  141.0236  166.5431 C.ar    1  UNL1        0.0586
     16 N         141.8196  139.6499  167.1391 N.ar    1  UNL1       -0.2458
     17 C         142.3862  139.4641  168.5155 C.ar    1  UNL1        0.1280
     18 C         139.9018  141.2343  165.9743 C.3     1  UNL1        0.0228
     19 C         138.7577  140.3375  165.6045 C.3     1  UNL1        0.0692
     20 N         138.6444  138.9740  166.2195 N.3     1  UNL1       -0.2937
     21 H         137.7126  138.9125  166.6298 H       1  UNL1        0.1236
     22 C         138.8252  137.7509  165.3703 C.3     1  UNL1        0.0957
     23 C         139.6861  137.8102  164.1434 C.ar    1  UNL1       -0.0055
     24 C         141.1743  137.6658  164.2636 C.ar    1  UNL1       -0.0029
     25 C         142.0351  137.7252  163.0366 C.ar    1  UNL1        0.0006
     26 C         141.4078  137.9290  161.6895 C.ar    1  UNL1        0.0114
     27 C         139.9196  138.0734  161.5692 C.ar    1  UNL1        0.0574
     28 CL        139.2923  138.2771  160.2220 Cl      1  UNL1       -0.0823
     29 C         139.0588  138.0140  162.7961 C.ar    1  UNL1        0.0085
@<TRIPOS>BOND
     1    11    12    1
     2    12    13   ar
     3    13    14   ar
     4    14    15   ar
     5    15     1    1
     6     1    18    1
     7    18    19    1
     8    19    20    1
     9    20    22    1
    10    22    23    1
    11    23    24   ar
    12    24    25   ar
    13    25    26   ar
    14    26    27   ar
    15    27    28    1
    16    27    29   ar
    17     1     2    1
    18     2     3    1
    19     3     4    1
    20     4     5    1
    21     5     6    1
    22     6     7    1
    23     7     8    1
    24     8     9    1
    25     5    10    1
    26    15    16   ar
    27    16    17   ar
    28    17    12   ar
    29    10     1    1
    30    29    23   ar
    31     9     5    1
    32    20    21    1
@<TRIPOS>MOLECULE
*****
 29 32 0 0 0
SMALL
GASTEIGER

@<TRIPOS>ATOM
      1 C         141.3638  140.5492  167.1915 C.3     1  UNL1        0.0415
      2 C         142.3446  139.4881  167.5942 C.3     1  UNL1        0.0377
      3 C         142.6949  139.3007  169.0406 C.3     1  UNL1        0.1424
      4 O         142.0644  140.1744  170.0843 O.3     1  UNL1       -0.3560
      5 C         141.0836  141.2354  169.6815 C.3     1  UNL1        0.1227
      6 C         140.0913  142.3321  169.4312 C.3     1  UNL1        0.0618
      7 C         139.7291  142.9402  170.7538 C.3     1  UNL1        0.1448
      8 O         140.4977  142.2194  171.8214 O.3     1  UNL1       -0.3512
      9 C         141.3348  141.1658  171.1587 C.3     1  UNL1        0.1691
     10 C         140.7333  141.4228  168.2351 C.3     1  UNL1        0.0355
     11 F         137.8987  143.9955  163.7106 F       1  UNL1       -0.2025
     12 C         138.7649  143.1339  164.5808 C.ar    1  UNL1        0.1592
     13 C         140.0445  143.6805  165.1410 C.ar    1  UNL1        0.0325
     14 C         140.9108  142.8190  166.0112 C.ar    1  UNL1        0.0170
     15 C         140.4974  141.4108  166.3212 C.ar    1  UNL1        0.0586
     16 N         139.2179  140.8642  165.7611 N.ar    1  UNL1       -0.2458
     17 C         138.3516  141.7258  164.8908 C.ar    1  UNL1        0.1280
     18 C         141.6934  139.9748  165.8456 C.3     1  UNL1        0.0228
     19 C         143.0850  139.4966  165.5546 C.3     1  UNL1        0.0692
     20 N         143.5955  139.4882  164.1441 N.3     1  UNL1       -0.2937
     21 H         142.7788  139.5367  163.5350 H       1  UNL1        0.1236
     22 C         144.5435  140.5554  163.6832 C.3     1  UNL1        0.0957
     23 C         144.1342  141.9973  163.7394 C.ar    1  UNL1       -0.0055
     24 C         144.6240  142.8730  164.8545 C.ar    1  UNL1       -0.0029
     25 C         144.2146  144.3151  164.9107 C.ar    1  UNL1        0.0006
     26 C         143.3156  144.8813  163.8520 C.ar    1  UNL1        0.0114
     27 C         142.8258  144.0056  162.7369 C.ar    1  UNL1        0.0574
     28 CL        141.9267  144.5719  161.6782 Cl      1  UNL1       -0.0823
     29 C         143.2351  142.5636  162.6807 C.ar    1  UNL1        0.0085
@<TRIPOS>BOND
     1    11    12    1
     2    12    13   ar
     3    13    14   ar
     4    14    15   ar
     5    15     1    1
     6     1    18    1
     7    18    19    1
     8    19    20    1
     9    20    22    1
    10    22    23    1
    11    23    24   ar
    12    24    25   ar
    13    25    26   ar
    14    26    27   ar
    15    27    28    1
    16    27    29   ar
    17     1     2    1
    18     2     3    1
    19     3     4    1
    20     4     5    1
    21     5     6    1
    22     6     7    1
    23     7     8    1
    24     8     9    1
    25     5    10    1
    26    15    16   ar
    27    16    17   ar
    28    17    12   ar
    29    10     1    1
    30    29    23   ar
    31     9     5    1
    32    20    21    1
@<TRIPOS>MOLECULE
*****
 29 32 0 0 0
SMALL
GASTEIGER

@<TRIPOS>ATOM
      1 C         139.8015  138.4609  162.8389 C.3     1  UNL1        0.0415
      2 C         139.9676  138.3514  161.3522 C.3     1  UNL1        0.0377
      3 C         141.3334  138.4533  160.7406 C.3     1  UNL1        0.1424
      4 O         142.5332  138.6648  161.6158 O.3     1  UNL1       -0.3560
      5 C         142.3670  138.7743  163.1025 C.3     1  UNL1        0.1227
      6 C         142.3567  138.9022  164.5970 C.3     1  UNL1        0.0618
      7 C         143.7710  139.1019  165.0549 C.3     1  UNL1        0.1448
      8 O         144.6555  139.0976  163.8435 O.3     1  UNL1       -0.3512
      9 C         143.7878  138.8951  162.6368 C.3     1  UNL1        0.1691
     10 C         141.0012  138.6724  163.7141 C.3     1  UNL1        0.0355
     11 F         137.1505  138.6251  168.2191 F       1  UNL1       -0.2025
     12 C         137.8133  138.5840  166.8741 C.ar    1  UNL1        0.1592
     13 C         138.1994  139.8613  166.1889 C.ar    1  UNL1        0.0325
     14 C         138.8621  139.8203  164.8439 C.ar    1  UNL1        0.0170
     15 C         139.1387  138.5019  164.1840 C.ar    1  UNL1        0.0586
     16 N         138.7526  137.2247  164.8691 N.ar    1  UNL1       -0.2458
     17 C         138.0898  137.2657  166.2142 C.ar    1  UNL1        0.1280
     18 C         138.3716  138.2637  162.4310 C.3     1  UNL1        0.0228
     19 C         137.7651  139.1401  161.3755 C.3     1  UNL1        0.0692
     20 N         137.2280  140.4922  161.7410 N.3     1  UNL1       -0.2937
     21 H         137.1024  140.4953  162.7533 H       1  UNL1        0.1236
     22 C         138.0078  141.7268  161.3977 C.3     1  UNL1        0.0957
     23 C         138.8927  142.3653  162.4269 C.ar    1  UNL1       -0.0055
     24 C         140.3634  142.0704  162.4385 C.ar    1  UNL1       -0.0029
     25 C         141.2482  142.7091  163.4677 C.ar    1  UNL1        0.0006
     26 C         140.6624  143.6425  164.4853 C.ar    1  UNL1        0.0114
     27 C         139.1917  143.9374  164.4737 C.ar    1  UNL1        0.0574
     28 CL        138.6059  144.8708  165.4913 Cl      1  UNL1       -0.0823
     29 C         138.3069  143.2988  163.4445 C.ar    1  UNL1        0.0085
@<TRIPOS>BOND
     1    11    12    1
     2    12    13   ar
     3    13    14   ar
     4    14    15   ar
     5    15     1    1
     6     1    18    1
     7    18    19    1
     8    19    20    1
     9    20    22    1
    10    22    23    1
    11    23    24   ar
    12    24    25   ar
    13    25    26   ar
    14    26    27   ar
    15    27    28    1
    16    27    29   ar
    17     1     2    1
    18     2     3    1
    19     3     4    1
    20     4     5    1
    21     5     6    1
    22     6     7    1
    23     7     8    1
    24     8     9    1
    25     5    10    1
    26    15    16   ar
    27    16    17   ar
    28    17    12   ar
    29    10     1    1
    30    29    23   ar
    31     9     5    1
    32    20    21    1
@<TRIPOS>MOLECULE
*****
 29 32 0 0 0
SMALL
GASTEIGER

@<TRIPOS>ATOM
      1 C         140.2377  141.5018  165.0990 C.3     1  UNL1        0.0415
      2 C         139.6699  141.2412  163.7353 C.3     1  UNL1        0.0377
      3 C         140.5216  141.4431  162.5172 C.3     1  UNL1        0.1424
      4 O         141.9411  141.9055  162.6628 O.3     1  UNL1       -0.3560
      5 C         142.5089  142.1661  164.0265 C.3     1  UNL1        0.1227
      6 C         143.2106  142.4654  165.3180 C.3     1  UNL1        0.0618
      7 C         144.6113  142.8947  164.9958 C.3     1  UNL1        0.1448
      8 O         144.7752  142.8608  163.5051 O.3     1  UNL1       -0.3512
      9 C         143.4758  142.4105  162.9061 C.3     1  UNL1        0.1691
     10 C         141.6572  141.9643  165.2446 C.3     1  UNL1        0.0355
     11 F         140.5778  141.9568  171.0721 F       1  UNL1       -0.2025
     12 C         140.4928  141.8430  169.5788 C.ar    1  UNL1        0.1592
     13 C         140.4155  143.0811  168.7355 C.ar    1  UNL1        0.0325
     14 C         140.3304  142.9674  167.2423 C.ar    1  UNL1        0.0170
     15 C         140.3227  141.6155  166.5923 C.ar    1  UNL1        0.0586
     16 N         140.4000  140.3775  167.4356 N.ar    1  UNL1       -0.2458
     17 C         140.4851  140.4912  168.9289 C.ar    1  UNL1        0.1280
     18 C         138.8478  141.0788  165.4721 C.3     1  UNL1        0.0228
     19 C         138.2575  139.8346  164.8776 C.3     1  UNL1        0.0692
     20 N         138.2654  138.5537  165.6583 N.3     1  UNL1       -0.2937
     21 H         137.3243  138.1653  165.5965 H       1  UNL1        0.1236
     22 C         139.2135  137.4532  165.2840 C.3     1  UNL1        0.0957
     23 C         140.4008  137.7489  164.4164 C.ar    1  UNL1       -0.0055
     24 C         140.3093  137.5618  162.9309 C.ar    1  UNL1       -0.0029
     25 C         141.4968  137.8575  162.0633 C.ar    1  UNL1        0.0006
     26 C         142.7754  138.3403  162.6811 C.ar    1  UNL1        0.0114
     27 C         142.8669  138.5275  164.1665 C.ar    1  UNL1        0.0574
     28 CL        144.1456  139.0103  164.7844 Cl      1  UNL1       -0.0823
     29 C         141.6795  138.2318  165.0342 C.ar    1  UNL1        0.0085
@<TRIPOS>BOND
     1    11    12    1
     2    12    13   ar
     3    13    14   ar
     4    14    15   ar
     5    15     1    1
     6     1    18    1
     7    18    19    1
     8    19    20    1
     9    20    22    1
    10    22    23    1
    11    23    24   ar
    12    24    25   ar
    13    25    26   ar
    14    26    27   ar
    15    27    28    1
    16    27    29   ar
    17     1     2    1
    18     2     3    1
    19     3     4    1
    20     4     5    1
    21     5     6    1
    22     6     7    1
    23     7     8    1
    24     8     9    1
    25     5    10    1
    26    15    16   ar
    27    16    17   ar
    28    17    12   ar
    29    10     1    1
    30    29    23   ar
    31     9     5    1
    32    20    21    1
@<TRIPOS>MOLECULE
*****
 29 32 0 0 0
SMALL
GASTEIGER

@<TRIPOS>ATOM
      1 C         141.3054  141.4136  164.8786 C.3     1  UNL1        0.0415
      2 C         141.5127  142.3346  163.7130 C.3     1  UNL1        0.0377
      3 C         141.6072  141.7766  162.3238 C.3     1  UNL1        0.1424
      4 O         141.4945  140.2976  162.1004 O.3     1  UNL1       -0.3560
      5 C         141.2873  139.3766  163.2661 C.3     1  UNL1        0.1227
      6 C         141.0801  138.3378  164.3281 C.3     1  UNL1        0.0618
      7 C         141.0268  136.9960  163.6597 C.3     1  UNL1        0.1448
      8 O         141.2010  137.2055  162.1847 O.3     1  UNL1       -0.3512
      9 C         141.3620  138.6769  161.9414 C.3     1  UNL1        0.1691
     10 C         141.1927  139.9346  164.6552 C.3     1  UNL1        0.0355
     11 F         140.5405  139.5609  170.5340 F       1  UNL1       -0.2025
     12 C         140.7318  140.0241  169.1201 C.ar    1  UNL1        0.1592
     13 C         139.5506  140.1408  168.2029 C.ar    1  UNL1        0.0325
     14 C         139.7419  140.6040  166.7891 C.ar    1  UNL1        0.0170
     15 C         141.1142  140.9504  166.2925 C.ar    1  UNL1        0.0586
     16 N         142.2953  140.8337  167.2097 N.ar    1  UNL1       -0.2458
     17 C         142.1041  140.3705  168.6236 C.ar    1  UNL1        0.1280
     18 C         141.3517  142.7317  165.5931 C.3     1  UNL1        0.0228
     19 C         140.5723  143.8992  165.0644 C.3     1  UNL1        0.0692
     20 N         139.1864  144.1674  165.5719 N.3     1  UNL1       -0.2937
     21 H         139.1803  145.1266  165.9186 H       1  UNL1        0.1236
     22 C         138.0110  144.0327  164.6499 C.3     1  UNL1        0.0957
     23 C         137.9929  142.9510  163.6108 C.ar    1  UNL1       -0.0055
     24 C         137.7567  141.5261  164.0156 C.ar    1  UNL1       -0.0029
     25 C         137.7387  140.4444  162.9764 C.ar    1  UNL1        0.0006
     26 C         137.9569  140.7877  161.5327 C.ar    1  UNL1        0.0114
     27 C         138.1932  142.2126  161.1279 C.ar    1  UNL1        0.0574
     28 CL        138.4115  142.5558  159.6841 Cl      1  UNL1       -0.0823
     29 C         138.2112  143.2942  162.1670 C.ar    1  UNL1        0.0085
@<TRIPOS>BOND
     1    11    12    1
     2    12    13   ar
     3    13    14   ar
     4    14    15   ar
     5    15     1    1
     6     1    18    1
     7    18    19    1
     8    19    20    1
     9    20    22    1
    10    22    23    1
    11    23    24   ar
    12    24    25   ar
    13    25    26   ar
    14    26    27   ar
    15    27    28    1
    16    27    29   ar
    17     1     2    1
    18     2     3    1
    19     3     4    1
    20     4     5    1
    21     5     6    1
    22     6     7    1
    23     7     8    1
    24     8     9    1
    25     5    10    1
    26    15    16   ar
    27    16    17   ar
    28    17    12   ar
    29    10     1    1
    30    29    23   ar
    31     9     5    1
    32    20    21    1
