@<TRIPOS>MOLECULE
*****
 38 42 0 0 0
SMALL
GASTEIGER

@<TRIPOS>ATOM
      1 C         141.0049  140.1829  165.2667 C.3     1  UNL1        0.0776
      2 C         142.6263  139.6043  163.3209 C.ar    1  UNL1        0.2211
      3 N         142.9761  139.6538  161.8631 N.ar    1  UNL1       -0.2119
      4 C         142.0541  140.3315  160.8932 C.ar    1  UNL1        0.0843
      5 C         142.4039  140.3811  159.4354 C.ar    1  UNL1        0.0189
      6 C         141.4820  141.0588  158.4656 C.ar    1  UNL1       -0.0027
      7 C         140.2102  141.6870  158.9535 C.ar    1  UNL1       -0.0218
      8 C         139.2883  142.3648  157.9836 C.3     1  UNL1        0.0310
      9 C         139.8605  141.6375  160.4113 C.ar    1  UNL1       -0.0028
     10 C         140.7824  140.9598  161.3811 C.ar    1  UNL1        0.0173
     11 C         140.4327  140.9102  162.8390 C.ar    1  UNL1        0.0022
     12 C         141.3546  140.2325  163.8088 C.ar    1  UNL1        0.0373
     13 C         144.9640  139.4004  164.4361 C.3     1  UNL1        0.2542
     14 O         143.5483  138.9265  164.2908 O.3     1  UNL1       -0.4563
     15 C         139.8824  139.3074  165.7393 C.ar    1  UNL1       -0.0157
     16 C         139.5946  138.0129  165.0383 C.ar    1  UNL1       -0.0039
     17 C         138.4721  137.1374  165.5109 C.ar    1  UNL1       -0.0003
     18 C         137.6373  137.5562  166.6846 C.ar    1  UNL1       -0.0000
     19 C         137.9250  138.8508  167.3857 C.ar    1  UNL1       -0.0003
     20 C         139.0476  139.7263  166.9131 C.ar    1  UNL1       -0.0039
     21 C         141.7776  141.0089  166.2519 C.3     1  UNL1        0.1158
     22 O         142.3519  139.7588  166.8495 O.3     1  UNL1       -0.3820
     23 H         141.7802  139.4532  167.5711 H       1  UNL1        0.2107
     24 C         141.2033  142.2591  165.6542 C.ar    1  UNL1        0.0024
     25 C         139.7644  142.6110  165.8906 C.ar    1  UNL1       -0.0020
     26 C         139.1901  143.8611  165.2929 C.ar    1  UNL1       -0.0002
     27 C         140.0546  144.7594  164.4588 C.ar    1  UNL1       -0.0000
     28 C         141.4934  144.4075  164.2224 C.ar    1  UNL1       -0.0002
     29 C         142.3579  145.3058  163.3883 C.ar    1  UNL1       -0.0000
     30 C         143.7968  144.9539  163.1518 C.ar    1  UNL1       -0.0000
     31 C         144.3711  143.7037  163.7495 C.ar    1  UNL1       -0.0000
     32 C         143.5066  142.8054  164.5836 C.ar    1  UNL1       -0.0002
     33 C         142.0678  143.1573  164.8201 C.ar    1  UNL1       -0.0018
     34 C         142.5503  141.8349  167.2370 C.3     1  UNL1        0.0491
     35 C         142.6075  141.4241  168.6785 C.3     1  UNL1        0.0750
     36 N         141.3382  141.1814  169.4401 N.3     1  UNL1       -0.2702
     37 C         141.0965  139.8516  170.0907 C.3     1  UNL1        0.0897
     38 C         140.3106  142.2685  169.5512 C.3     1  UNL1        0.0897
@<TRIPOS>BOND
     1    13    14    1
     2    14     2    1
     3     2     3   ar
     4     3     4   ar
     5     4     5   ar
     6     5     6   ar
     7     6     7   ar
     8     7     8    1
     9     7     9   ar
    10     9    10   ar
    11    10    11   ar
    12    11    12   ar
    13    12     1    1
    14     1    15    1
    15    15    16   ar
    16    16    17   ar
    17    17    18   ar
    18    18    19   ar
    19    19    20   ar
    20     1    21    1
    21    21    22    1
    22    21    34    1
    23    34    35    1
    24    35    36    1
    25    36    37    1
    26    36    38    1
    27    21    24    1
    28    24    25   ar
    29    25    26   ar
    30    26    27   ar
    31    27    28   ar
    32    28    29   ar
    33    29    30   ar
    34    30    31   ar
    35    31    32   ar
    36    32    33   ar
    37    12     2   ar
    38    20    15   ar
    39    33    24   ar
    40    10     4   ar
    41    33    28   ar
    42    22    23    1
@<TRIPOS>MOLECULE
*****
 38 42 0 0 0
SMALL
GASTEIGER

@<TRIPOS>ATOM
      1 C         140.6078  141.4382  166.2566 C.3     1  UNL1        0.0776
      2 C         139.8932  143.3875  164.6945 C.ar    1  UNL1        0.2211
      3 N         139.7492  143.9617  163.3164 N.ar    1  UNL1       -0.2119
      4 C         140.1758  143.1610  162.1218 C.ar    1  UNL1        0.0843
      5 C         140.0318  143.7352  160.7436 C.ar    1  UNL1        0.0189
      6 C         140.4584  142.9345  159.5492 C.ar    1  UNL1       -0.0027
      7 C         141.0291  141.5594  159.7329 C.ar    1  UNL1       -0.0218
      8 C         141.4557  140.7587  158.5384 C.3     1  UNL1        0.0310
      9 C         141.1731  140.9852  161.1111 C.ar    1  UNL1       -0.0028
     10 C         140.7464  141.7860  162.3056 C.ar    1  UNL1        0.0173
     11 C         140.8904  141.2117  163.6838 C.ar    1  UNL1        0.0022
     12 C         140.4638  142.0125  164.8783 C.ar    1  UNL1        0.0373
     13 C         138.2714  145.0901  165.7994 C.3     1  UNL1        0.2542
     14 O         139.4666  144.1882  165.8891 O.3     1  UNL1       -0.4563
     15 C         139.5916  140.4631  166.7727 C.ar    1  UNL1       -0.0157
     16 C         138.8318  139.5942  165.8148 C.ar    1  UNL1       -0.0039
     17 C         137.8156  138.6190  166.3309 C.ar    1  UNL1       -0.0003
     18 C         137.5591  138.5129  167.8050 C.ar    1  UNL1       -0.0000
     19 C         138.3188  139.3819  168.7630 C.ar    1  UNL1       -0.0003
     20 C         139.3351  140.3570  168.2469 C.ar    1  UNL1       -0.0039
     21 C         141.7680  141.8391  167.1186 C.3     1  UNL1        0.1158
     22 O         140.9048  142.8532  167.8088 O.3     1  UNL1       -0.3820
     23 H         140.9702  143.7027  167.3451 H       1  UNL1        0.2107
     24 C         142.6312  140.8250  166.4285 C.ar    1  UNL1        0.0024
     25 C         142.5368  139.3769  166.8081 C.ar    1  UNL1       -0.0020
     26 C         143.4000  138.3627  166.1180 C.ar    1  UNL1       -0.0002
     27 C         144.3577  138.7967  165.0481 C.ar    1  UNL1       -0.0000
     28 C         144.4522  140.2447  164.6685 C.ar    1  UNL1       -0.0002
     29 C         145.4099  140.6787  163.5987 C.ar    1  UNL1       -0.0000
     30 C         145.5044  142.1268  163.2191 C.ar    1  UNL1       -0.0000
     31 C         144.6412  143.1409  163.9092 C.ar    1  UNL1       -0.0000
     32 C         143.6834  142.7070  164.9790 C.ar    1  UNL1       -0.0002
     33 C         143.5890  141.2589  165.3587 C.ar    1  UNL1       -0.0018
     34 C         142.9282  142.2400  167.9807 C.3     1  UNL1        0.0491
     35 C         142.7069  142.5828  169.4241 C.3     1  UNL1        0.0750
     36 N         142.1572  141.5512  170.3642 N.3     1  UNL1       -0.2702
     37 C         142.8009  140.1993  170.4539 C.3     1  UNL1        0.0897
     38 C         140.9638  141.8715  171.2146 C.3     1  UNL1        0.0897
@<TRIPOS>BOND
     1    13    14    1
     2    14     2    1
     3     2     3   ar
     4     3     4   ar
     5     4     5   ar
     6     5     6   ar
     7     6     7   ar
     8     7     8    1
     9     7     9   ar
    10     9    10   ar
    11    10    11   ar
    12    11    12   ar
    13    12     1    1
    14     1    15    1
    15    15    16   ar
    16    16    17   ar
    17    17    18   ar
    18    18    19   ar
    19    19    20   ar
    20     1    21    1
    21    21    22    1
    22    21    34    1
    23    34    35    1
    24    35    36    1
    25    36    37    1
    26    36    38    1
    27    21    24    1
    28    24    25   ar
    29    25    26   ar
    30    26    27   ar
    31    27    28   ar
    32    28    29   ar
    33    29    30   ar
    34    30    31   ar
    35    31    32   ar
    36    32    33   ar
    37    12     2   ar
    38    20    15   ar
    39    33    24   ar
    40    10     4   ar
    41    33    28   ar
    42    22    23    1
@<TRIPOS>MOLECULE
*****
 38 42 0 0 0
SMALL
GASTEIGER

@<TRIPOS>ATOM
      1 C         139.6560  140.6965  164.4954 C.3     1  UNL1        0.0776
      2 C         139.2075  139.8771  166.9197 C.ar    1  UNL1        0.2211
      3 N         139.6017  139.8212  168.3659 N.ar    1  UNL1       -0.2119
      4 C         140.8387  140.5289  168.8340 C.ar    1  UNL1        0.0843
      5 C         141.2330  140.4729  170.2801 C.ar    1  UNL1        0.0189
      6 C         142.4699  141.1806  170.7482 C.ar    1  UNL1       -0.0027
      7 C         143.3127  141.9442  169.7700 C.ar    1  UNL1       -0.0218
      8 C         144.5497  142.6519  170.2381 C.3     1  UNL1        0.0310
      9 C         142.9184  142.0001  168.3239 C.ar    1  UNL1       -0.0028
     10 C         141.6815  141.2924  167.8558 C.ar    1  UNL1        0.0173
     11 C         141.2872  141.3483  166.4096 C.ar    1  UNL1        0.0022
     12 C         140.0503  140.6406  165.9416 C.ar    1  UNL1        0.0373
     13 C         137.3591  138.0904  167.2953 C.3     1  UNL1        0.2542
     14 O         137.9705  139.1694  166.4516 O.3     1  UNL1       -0.4563
     15 C         139.0048  141.9296  163.9426 C.ar    1  UNL1       -0.0157
     16 C         138.8979  143.1643  164.7877 C.ar    1  UNL1       -0.0039
     17 C         138.2468  144.3974  164.2349 C.ar    1  UNL1       -0.0003
     18 C         137.7026  144.3958  162.8372 C.ar    1  UNL1       -0.0000
     19 C         137.8095  143.1611  161.9921 C.ar    1  UNL1       -0.0003
     20 C         138.4606  141.9280  162.5448 C.ar    1  UNL1       -0.0039
     21 C         139.9128  139.5194  163.6019 C.3     1  UNL1        0.1158
     22 O         138.5216  139.0209  163.8587 O.3     1  UNL1       -0.3820
     23 H         138.5274  138.4264  164.6251 H       1  UNL1        0.2107
     24 C         141.3041  140.0178  163.3452 C.ar    1  UNL1        0.0024
     25 C         141.5482  141.0445  162.2792 C.ar    1  UNL1       -0.0020
     26 C         142.9394  141.5430  162.0224 C.ar    1  UNL1       -0.0002
     27 C         144.0866  141.0147  162.8317 C.ar    1  UNL1       -0.0000
     28 C         143.8426  139.9880  163.8976 C.ar    1  UNL1       -0.0002
     29 C         144.9898  139.4598  164.7068 C.ar    1  UNL1       -0.0000
     30 C         144.7457  138.4330  165.7729 C.ar    1  UNL1       -0.0000
     31 C         143.3545  137.9346  166.0296 C.ar    1  UNL1       -0.0000
     32 C         142.2073  138.4629  165.2204 C.ar    1  UNL1       -0.0002
     33 C         142.4513  139.4895  164.1544 C.ar    1  UNL1       -0.0018
     34 C         140.1697  138.3422  162.7085 C.3     1  UNL1        0.0491
     35 C         139.2890  138.0969  161.5193 C.3     1  UNL1        0.0750
     36 N         139.5581  138.8095  160.2271 N.3     1  UNL1       -0.2702
     37 C         140.8747  138.6294  159.5313 C.3     1  UNL1        0.0897
     38 C         138.5105  139.7021  159.6306 C.3     1  UNL1        0.0897
@<TRIPOS>BOND
     1    13    14    1
     2    14     2    1
     3     2     3   ar
     4     3     4   ar
     5     4     5   ar
     6     5     6   ar
     7     6     7   ar
     8     7     8    1
     9     7     9   ar
    10     9    10   ar
    11    10    11   ar
    12    11    12   ar
    13    12     1    1
    14     1    15    1
    15    15    16   ar
    16    16    17   ar
    17    17    18   ar
    18    18    19   ar
    19    19    20   ar
    20     1    21    1
    21    21    22    1
    22    21    34    1
    23    34    35    1
    24    35    36    1
    25    36    37    1
    26    36    38    1
    27    21    24    1
    28    24    25   ar
    29    25    26   ar
    30    26    27   ar
    31    27    28   ar
    32    28    29   ar
    33    29    30   ar
    34    30    31   ar
    35    31    32   ar
    36    32    33   ar
    37    12     2   ar
    38    20    15   ar
    39    33    24   ar
    40    10     4   ar
    41    33    28   ar
    42    22    23    1
@<TRIPOS>MOLECULE
*****
 38 42 0 0 0
SMALL
GASTEIGER

@<TRIPOS>ATOM
      1 C         139.5501  140.8404  164.7238 C.3     1  UNL1        0.0776
      2 C         138.9990  139.8610  167.0663 C.ar    1  UNL1        0.2211
      3 N         139.2348  139.8242  168.5472 N.ar    1  UNL1       -0.2119
      4 C         140.2576  140.7299  169.1666 C.ar    1  UNL1        0.0843
      5 C         140.4935  140.6930  170.6474 C.ar    1  UNL1        0.0189
      6 C         141.5163  141.5987  171.2667 C.ar    1  UNL1       -0.0027
      7 C         142.3032  142.5412  170.4052 C.ar    1  UNL1       -0.0218
      8 C         143.3261  143.4469  171.0246 C.3     1  UNL1        0.0310
      9 C         142.0674  142.5781  168.9243 C.ar    1  UNL1       -0.0028
     10 C         141.0446  141.6724  168.3050 C.ar    1  UNL1        0.0173
     11 C         140.8088  141.7092  166.8241 C.ar    1  UNL1        0.0022
     12 C         139.7860  140.8036  166.2048 C.ar    1  UNL1        0.0373
     13 C         137.2630  137.9412  167.2913 C.3     1  UNL1        0.2542
     14 O         137.9761  138.9553  166.4470 O.3     1  UNL1       -0.4563
     15 C         139.3050  142.1505  164.0358 C.ar    1  UNL1       -0.0157
     16 C         137.9423  142.4714  163.4972 C.ar    1  UNL1       -0.0039
     17 C         137.6972  143.7816  162.8092 C.ar    1  UNL1       -0.0003
     18 C         138.8148  144.7709  162.6597 C.ar    1  UNL1       -0.0000
     19 C         140.1775  144.4500  163.1984 C.ar    1  UNL1       -0.0003
     20 C         140.4226  143.1399  163.8864 C.ar    1  UNL1       -0.0039
     21 C         139.5594  139.5671  163.9310 C.3     1  UNL1        0.1158
     22 O         138.0723  139.6630  163.7596 O.3     1  UNL1       -0.3820
     23 H         137.6322  139.1945  164.4860 H       1  UNL1        0.2107
     24 C         141.0464  139.4712  164.1025 C.ar    1  UNL1        0.0024
     25 C         141.6198  138.7841  165.3064 C.ar    1  UNL1       -0.0020
     26 C         143.1069  138.6882  165.4778 C.ar    1  UNL1       -0.0002
     27 C         144.0206  139.2792  164.4455 C.ar    1  UNL1       -0.0000
     28 C         143.4473  139.9663  163.2417 C.ar    1  UNL1       -0.0002
     29 C         144.3610  140.5574  162.2093 C.ar    1  UNL1       -0.0000
     30 C         143.7875  141.2444  161.0054 C.ar    1  UNL1       -0.0000
     31 C         142.3005  141.3404  160.8340 C.ar    1  UNL1       -0.0000
     32 C         141.3868  140.7493  161.8663 C.ar    1  UNL1       -0.0002
     33 C         141.9601  140.0622  163.0701 C.ar    1  UNL1       -0.0018
     34 C         139.5686  138.2938  163.1382 C.3     1  UNL1        0.0491
     35 C         138.5055  138.0426  162.1103 C.3     1  UNL1        0.0750
     36 N         138.5483  138.7634  160.7954 N.3     1  UNL1       -0.2702
     37 C         139.6041  138.4210  159.7865 C.3     1  UNL1        0.0897
     38 C         137.5353  139.8265  160.4896 C.3     1  UNL1        0.0897
@<TRIPOS>BOND
     1    13    14    1
     2    14     2    1
     3     2     3   ar
     4     3     4   ar
     5     4     5   ar
     6     5     6   ar
     7     6     7   ar
     8     7     8    1
     9     7     9   ar
    10     9    10   ar
    11    10    11   ar
    12    11    12   ar
    13    12     1    1
    14     1    15    1
    15    15    16   ar
    16    16    17   ar
    17    17    18   ar
    18    18    19   ar
    19    19    20   ar
    20     1    21    1
    21    21    22    1
    22    21    34    1
    23    34    35    1
    24    35    36    1
    25    36    37    1
    26    36    38    1
    27    21    24    1
    28    24    25   ar
    29    25    26   ar
    30    26    27   ar
    31    27    28   ar
    32    28    29   ar
    33    29    30   ar
    34    30    31   ar
    35    31    32   ar
    36    32    33   ar
    37    12     2   ar
    38    20    15   ar
    39    33    24   ar
    40    10     4   ar
    41    33    28   ar
    42    22    23    1
@<TRIPOS>MOLECULE
*****
 38 42 0 0 0
SMALL
GASTEIGER

@<TRIPOS>ATOM
      1 C         141.5771  142.0241  164.1816 C.3     1  UNL1        0.0776
      2 C         143.5308  142.8686  162.6916 C.ar    1  UNL1        0.2211
      3 N         144.2542  142.8731  161.3776 N.ar    1  UNL1       -0.2119
      4 C         143.7475  142.0376  160.2395 C.ar    1  UNL1        0.0843
      5 C         144.4709  142.0422  158.9255 C.ar    1  UNL1        0.0189
      6 C         143.9641  141.2067  157.7875 C.ar    1  UNL1       -0.0027
      7 C         142.7339  140.3667  157.9635 C.ar    1  UNL1       -0.0218
      8 C         142.2271  139.5312  156.8254 C.3     1  UNL1        0.0310
      9 C         142.0105  140.3622  159.2775 C.ar    1  UNL1       -0.0028
     10 C         142.5172  141.1976  160.4155 C.ar    1  UNL1        0.0173
     11 C         141.7938  141.1931  161.7295 C.ar    1  UNL1        0.0022
     12 C         142.3006  142.0286  162.8675 C.ar    1  UNL1        0.0373
     13 C         143.6744  145.1571  163.9132 C.3     1  UNL1        0.2542
     14 O         144.0375  143.7041  163.8297 O.3     1  UNL1       -0.4563
     15 C         140.2311  142.6757  164.2989 C.ar    1  UNL1       -0.0157
     16 C         140.0726  143.9293  165.1072 C.ar    1  UNL1       -0.0039
     17 C         138.7266  144.5809  165.2245 C.ar    1  UNL1       -0.0003
     18 C         137.5392  143.9789  164.5336 C.ar    1  UNL1       -0.0000
     19 C         137.6976  142.7252  163.7253 C.ar    1  UNL1       -0.0003
     20 C         139.0436  142.0736  163.6080 C.ar    1  UNL1       -0.0039
     21 C         142.1996  141.3681  165.3782 C.3     1  UNL1        0.1158
     22 O         142.6137  142.7121  165.8997 O.3     1  UNL1       -0.3820
     23 H         143.5003  142.9276  165.5705 H       1  UNL1        0.2107
     24 C         141.7856  140.0240  164.8568 C.ar    1  UNL1        0.0024
     25 C         142.6383  139.3167  163.8454 C.ar    1  UNL1       -0.0020
     26 C         142.2242  137.9726  163.3239 C.ar    1  UNL1       -0.0002
     27 C         140.9575  137.3358  163.8137 C.ar    1  UNL1       -0.0000
     28 C         140.1049  138.0430  164.8250 C.ar    1  UNL1       -0.0002
     29 C         138.8382  137.4061  165.3149 C.ar    1  UNL1       -0.0000
     30 C         137.9856  138.1134  166.3262 C.ar    1  UNL1       -0.0000
     31 C         138.3996  139.4575  166.8477 C.ar    1  UNL1       -0.0000
     32 C         139.6663  140.0943  166.3579 C.ar    1  UNL1       -0.0002
     33 C         140.5189  139.3871  165.3466 C.ar    1  UNL1       -0.0018
     34 C         142.8222  140.7120  166.5749 C.3     1  UNL1        0.0491
     35 C         142.9028  141.4505  167.8780 C.3     1  UNL1        0.0750
     36 N         141.7232  141.4678  168.8045 N.3     1  UNL1       -0.2702
     37 C         140.8560  142.6886  168.8920 C.3     1  UNL1        0.0897
     38 C         141.4108  140.2642  169.6435 C.3     1  UNL1        0.0897
@<TRIPOS>BOND
     1    13    14    1
     2    14     2    1
     3     2     3   ar
     4     3     4   ar
     5     4     5   ar
     6     5     6   ar
     7     6     7   ar
     8     7     8    1
     9     7     9   ar
    10     9    10   ar
    11    10    11   ar
    12    11    12   ar
    13    12     1    1
    14     1    15    1
    15    15    16   ar
    16    16    17   ar
    17    17    18   ar
    18    18    19   ar
    19    19    20   ar
    20     1    21    1
    21    21    22    1
    22    21    34    1
    23    34    35    1
    24    35    36    1
    25    36    37    1
    26    36    38    1
    27    21    24    1
    28    24    25   ar
    29    25    26   ar
    30    26    27   ar
    31    27    28   ar
    32    28    29   ar
    33    29    30   ar
    34    30    31   ar
    35    31    32   ar
    36    32    33   ar
    37    12     2   ar
    38    20    15   ar
    39    33    24   ar
    40    10     4   ar
    41    33    28   ar
    42    22    23    1
@<TRIPOS>MOLECULE
*****
 38 42 0 0 0
SMALL
GASTEIGER

@<TRIPOS>ATOM
      1 C         141.7140  141.9682  163.9742 C.3     1  UNL1        0.0776
      2 C         143.5468  142.7213  162.2937 C.ar    1  UNL1        0.2211
      3 N         143.9654  143.0602  160.8938 N.ar    1  UNL1       -0.2119
      4 C         142.9698  142.9850  159.7742 C.ar    1  UNL1        0.0843
      5 C         143.3885  143.3240  158.3743 C.ar    1  UNL1        0.0189
      6 C         142.3929  143.2488  157.2548 C.ar    1  UNL1       -0.0027
      7 C         140.9788  142.8346  157.5353 C.ar    1  UNL1       -0.0218
      8 C         139.9832  142.7594  156.4158 C.3     1  UNL1        0.0310
      9 C         140.5601  142.4957  158.9352 C.ar    1  UNL1       -0.0028
     10 C         141.5557  142.5709  160.0547 C.ar    1  UNL1        0.0173
     11 C         141.1371  142.2319  161.4547 C.ar    1  UNL1        0.0022
     12 C         142.1326  142.3071  162.5742 C.ar    1  UNL1        0.0373
     13 C         145.6659  141.8053  163.4855 C.3     1  UNL1        0.2542
     14 O         144.5423  142.7965  163.4132 O.3     1  UNL1       -0.4563
     15 C         142.2180  140.7142  164.6248 C.ar    1  UNL1       -0.0157
     16 C         141.9111  139.3780  164.0164 C.ar    1  UNL1       -0.0039
     17 C         142.4151  138.1239  164.6670 C.ar    1  UNL1       -0.0003
     18 C         143.2261  138.2061  165.9262 C.ar    1  UNL1       -0.0000
     19 C         143.5331  139.5424  166.5347 C.ar    1  UNL1       -0.0003
     20 C         143.0291  140.7964  165.8840 C.ar    1  UNL1       -0.0039
     21 C         140.7914  142.8832  164.7234 C.3     1  UNL1        0.1158
     22 O         141.6926  144.0426  164.4173 O.3     1  UNL1       -0.3820
     23 H         142.3470  144.1396  165.1267 H       1  UNL1        0.2107
     24 C         139.8902  141.7239  165.0296 C.ar    1  UNL1        0.0024
     25 C         139.1164  141.0639  163.9270 C.ar    1  UNL1       -0.0020
     26 C         138.2152  139.9046  164.2332 C.ar    1  UNL1       -0.0002
     27 C         138.0878  139.4052  165.6419 C.ar    1  UNL1       -0.0000
     28 C         138.8615  140.0652  166.7444 C.ar    1  UNL1       -0.0002
     29 C         138.7341  139.5659  168.1531 C.ar    1  UNL1       -0.0000
     30 C         139.5080  140.2259  169.2557 C.ar    1  UNL1       -0.0000
     31 C         140.4091  141.3853  168.9495 C.ar    1  UNL1       -0.0000
     32 C         140.5366  141.8846  167.5408 C.ar    1  UNL1       -0.0002
     33 C         139.7628  141.2246  166.4383 C.ar    1  UNL1       -0.0018
     34 C         139.8688  143.7983  165.4727 C.3     1  UNL1        0.0491
     35 C         139.2037  144.9393  164.7616 C.3     1  UNL1        0.0750
     36 N         138.8956  144.8332  163.2974 N.3     1  UNL1       -0.2702
     37 C         137.7664  143.9636  162.8297 C.3     1  UNL1        0.0897
     38 C         139.7166  145.5967  162.3010 C.3     1  UNL1        0.0897
@<TRIPOS>BOND
     1    13    14    1
     2    14     2    1
     3     2     3   ar
     4     3     4   ar
     5     4     5   ar
     6     5     6   ar
     7     6     7   ar
     8     7     8    1
     9     7     9   ar
    10     9    10   ar
    11    10    11   ar
    12    11    12   ar
    13    12     1    1
    14     1    15    1
    15    15    16   ar
    16    16    17   ar
    17    17    18   ar
    18    18    19   ar
    19    19    20   ar
    20     1    21    1
    21    21    22    1
    22    21    34    1
    23    34    35    1
    24    35    36    1
    25    36    37    1
    26    36    38    1
    27    21    24    1
    28    24    25   ar
    29    25    26   ar
    30    26    27   ar
    31    27    28   ar
    32    28    29   ar
    33    29    30   ar
    34    30    31   ar
    35    31    32   ar
    36    32    33   ar
    37    12     2   ar
    38    20    15   ar
    39    33    24   ar
    40    10     4   ar
    41    33    28   ar
    42    22    23    1
@<TRIPOS>MOLECULE
*****
 38 42 0 0 0
SMALL
GASTEIGER

@<TRIPOS>ATOM
      1 C         140.3369  140.4401  164.1303 C.3     1  UNL1        0.0776
      2 C         141.6823  139.7942  162.0036 C.ar    1  UNL1        0.2211
      3 N         141.7611  139.6382  160.5138 N.ar    1  UNL1       -0.2119
      4 C         140.5732  139.9723  159.6608 C.ar    1  UNL1        0.0843
      5 C         140.6520  139.8164  158.1711 C.ar    1  UNL1        0.0189
      6 C         139.4642  140.1505  157.3182 C.ar    1  UNL1       -0.0027
      7 C         138.1976  140.6405  157.9551 C.ar    1  UNL1       -0.0218
      8 C         137.0098  140.9746  157.1021 C.3     1  UNL1        0.0310
      9 C         138.1188  140.7964  159.4448 C.ar    1  UNL1       -0.0028
     10 C         139.3066  140.4624  160.2977 C.ar    1  UNL1        0.0173
     11 C         139.2279  140.6183  161.7876 C.ar    1  UNL1        0.0022
     12 C         140.4157  140.2842  162.6405 C.ar    1  UNL1        0.0373
     13 C         143.8314  138.3948  162.4195 C.3     1  UNL1        0.2542
     14 O         142.8701  139.4601  162.8566 O.3     1  UNL1       -0.4563
     15 C         139.5159  139.4827  164.9422 C.ar    1  UNL1       -0.0157
     16 C         139.3378  138.0673  164.4786 C.ar    1  UNL1       -0.0039
     17 C         138.5168  137.1099  165.2906 C.ar    1  UNL1       -0.0003
     18 C         137.8739  137.5678  166.5661 C.ar    1  UNL1       -0.0000
     19 C         138.0520  138.9832  167.0297 C.ar    1  UNL1       -0.0003
     20 C         138.8730  139.9407  166.2178 C.ar    1  UNL1       -0.0039
     21 C         141.0791  141.5535  164.8081 C.3     1  UNL1        0.1158
     22 O         142.0341  140.5581  165.3973 O.3     1  UNL1       -0.3820
     23 H         141.7047  140.2664  166.2617 H       1  UNL1        0.2107
     24 C         140.1241  142.5488  164.2190 C.ar    1  UNL1        0.0024
     25 C         138.7580  142.7208  164.8143 C.ar    1  UNL1       -0.0020
     26 C         137.8030  143.7161  164.2251 C.ar    1  UNL1       -0.0002
     27 C         138.2141  144.5396  163.0407 C.ar    1  UNL1       -0.0000
     28 C         139.5801  144.3678  162.4454 C.ar    1  UNL1       -0.0002
     29 C         139.9911  145.1913  161.2609 C.ar    1  UNL1       -0.0000
     30 C         141.3572  145.0194  160.6657 C.ar    1  UNL1       -0.0000
     31 C         142.3122  144.0240  161.2548 C.ar    1  UNL1       -0.0000
     32 C         141.9012  143.2005  162.4393 C.ar    1  UNL1       -0.0002
     33 C         140.5352  143.3724  163.0345 C.ar    1  UNL1       -0.0018
     34 C         141.8214  142.6668  165.4860 C.3     1  UNL1        0.0491
     35 C         142.7785  142.3611  166.5997 C.3     1  UNL1        0.0750
     36 N         142.2942  142.3360  168.0192 N.3     1  UNL1       -0.2702
     37 C         140.8407  142.5530  168.3196 C.3     1  UNL1        0.0897
     38 C         143.2634  142.0940  169.1382 C.3     1  UNL1        0.0897
@<TRIPOS>BOND
     1    13    14    1
     2    14     2    1
     3     2     3   ar
     4     3     4   ar
     5     4     5   ar
     6     5     6   ar
     7     6     7   ar
     8     7     8    1
     9     7     9   ar
    10     9    10   ar
    11    10    11   ar
    12    11    12   ar
    13    12     1    1
    14     1    15    1
    15    15    16   ar
    16    16    17   ar
    17    17    18   ar
    18    18    19   ar
    19    19    20   ar
    20     1    21    1
    21    21    22    1
    22    21    34    1
    23    34    35    1
    24    35    36    1
    25    36    37    1
    26    36    38    1
    27    21    24    1
    28    24    25   ar
    29    25    26   ar
    30    26    27   ar
    31    27    28   ar
    32    28    29   ar
    33    29    30   ar
    34    30    31   ar
    35    31    32   ar
    36    32    33   ar
    37    12     2   ar
    38    20    15   ar
    39    33    24   ar
    40    10     4   ar
    41    33    28   ar
    42    22    23    1
@<TRIPOS>MOLECULE
*****
 38 42 0 0 0
SMALL
GASTEIGER

@<TRIPOS>ATOM
      1 C         141.7207  142.3666  162.4522 C.3     1  UNL1        0.0776
      2 C         143.5048  142.4905  164.3368 C.ar    1  UNL1        0.2211
      3 N         143.8612  142.4466  165.7931 N.ar    1  UNL1       -0.2119
      4 C         142.7898  142.2347  166.8214 C.ar    1  UNL1        0.0843
      5 C         143.1462  142.1908  168.2778 C.ar    1  UNL1        0.0189
      6 C         142.0748  141.9789  169.3060 C.ar    1  UNL1       -0.0027
      7 C         140.6471  141.8110  168.8778 C.ar    1  UNL1       -0.0218
      8 C         139.5757  141.5992  169.9061 C.3     1  UNL1        0.0310
      9 C         140.2907  141.8550  167.4214 C.ar    1  UNL1       -0.0028
     10 C         141.3621  142.0668  166.3933 C.ar    1  UNL1        0.0173
     11 C         141.0057  142.1108  164.9368 C.ar    1  UNL1        0.0022
     12 C         142.0771  142.3226  163.9086 C.ar    1  UNL1        0.0373
     13 C         145.7972  141.8310  163.3071 C.3     1  UNL1        0.2542
     14 O         144.5762  142.7023  163.3085 O.3     1  UNL1       -0.4563
     15 C         141.1587  143.6226  161.8552 C.ar    1  UNL1       -0.0157
     16 C         141.4019  143.9400  160.4095 C.ar    1  UNL1       -0.0039
     17 C         140.8399  145.1961  159.8125 C.ar    1  UNL1       -0.0003
     18 C         140.0346  146.1348  160.6612 C.ar    1  UNL1       -0.0000
     19 C         139.7913  145.8174  162.1070 C.ar    1  UNL1       -0.0003
     20 C         140.3534  144.5614  162.7039 C.ar    1  UNL1       -0.0039
     21 C         141.9264  141.1545  161.5928 C.3     1  UNL1        0.1158
     22 O         143.2723  141.6741  161.1821 O.3     1  UNL1       -0.3820
     23 H         143.1801  142.2129  160.3808 H       1  UNL1        0.2107
     24 C         140.5806  140.6350  162.0035 C.ar    1  UNL1        0.0024
     25 C         139.3344  141.2606  161.4505 C.ar    1  UNL1       -0.0020
     26 C         137.9886  140.7410  161.8612 C.ar    1  UNL1       -0.0002
     27 C         137.8888  139.5958  162.8248 C.ar    1  UNL1       -0.0000
     28 C         139.1349  138.9702  163.3778 C.ar    1  UNL1       -0.0002
     29 C         139.0351  137.8250  164.3414 C.ar    1  UNL1       -0.0000
     30 C         140.2813  137.1994  164.8944 C.ar    1  UNL1       -0.0000
     31 C         141.6272  137.7189  164.4837 C.ar    1  UNL1       -0.0000
     32 C         141.7269  138.8641  163.5201 C.ar    1  UNL1       -0.0002
     33 C         140.4808  139.4898  162.9671 C.ar    1  UNL1       -0.0018
     34 C         142.1321  139.9425  160.7334 C.3     1  UNL1        0.0491
     35 C         143.4648  139.6964  160.0904 C.3     1  UNL1        0.0750
     36 N         143.5787  139.6478  158.5955 N.3     1  UNL1       -0.2702
     37 C         144.3815  140.6869  157.8704 C.3     1  UNL1        0.0897
     38 C         142.8898  138.5602  157.8258 C.3     1  UNL1        0.0897
@<TRIPOS>BOND
     1    13    14    1
     2    14     2    1
     3     2     3   ar
     4     3     4   ar
     5     4     5   ar
     6     5     6   ar
     7     6     7   ar
     8     7     8    1
     9     7     9   ar
    10     9    10   ar
    11    10    11   ar
    12    11    12   ar
    13    12     1    1
    14     1    15    1
    15    15    16   ar
    16    16    17   ar
    17    17    18   ar
    18    18    19   ar
    19    19    20   ar
    20     1    21    1
    21    21    22    1
    22    21    34    1
    23    34    35    1
    24    35    36    1
    25    36    37    1
    26    36    38    1
    27    21    24    1
    28    24    25   ar
    29    25    26   ar
    30    26    27   ar
    31    27    28   ar
    32    28    29   ar
    33    29    30   ar
    34    30    31   ar
    35    31    32   ar
    36    32    33   ar
    37    12     2   ar
    38    20    15   ar
    39    33    24   ar
    40    10     4   ar
    41    33    28   ar
    42    22    23    1
@<TRIPOS>MOLECULE
*****
 38 42 0 0 0
SMALL
GASTEIGER

@<TRIPOS>ATOM
      1 C         140.4759  140.6035  163.3136 C.3     1  UNL1        0.0776
      2 C         139.7884  139.3099  165.4593 C.ar    1  UNL1        0.2211
      3 N         139.5554  139.2820  166.9408 N.ar    1  UNL1       -0.2119
      4 C         139.7769  140.5201  167.7583 C.ar    1  UNL1        0.0843
      5 C         139.5439  140.4922  169.2398 C.ar    1  UNL1        0.0189
      6 C         139.7654  141.7302  170.0572 C.ar    1  UNL1       -0.0027
      7 C         140.2198  142.9961  169.3931 C.ar    1  UNL1       -0.0218
      8 C         140.4413  144.2342  170.2106 C.3     1  UNL1        0.0310
      9 C         140.4528  143.0240  167.9116 C.ar    1  UNL1       -0.0028
     10 C         140.2314  141.7860  167.0942 C.ar    1  UNL1        0.0173
     11 C         140.4644  141.8138  165.6126 C.ar    1  UNL1        0.0022
     12 C         140.2429  140.5757  164.7952 C.ar    1  UNL1        0.0373
     13 C         140.6699  137.0668  164.4890 C.3     1  UNL1        0.2542
     14 O         139.5670  138.0718  164.6418 O.3     1  UNL1       -0.4563
     15 C         141.8750  140.6543  162.7753 C.ar    1  UNL1       -0.0157
     16 C         142.8254  141.7110  163.2552 C.ar    1  UNL1       -0.0039
     17 C         144.2245  141.7618  162.7169 C.ar    1  UNL1       -0.0003
     18 C         144.6733  140.7559  161.6986 C.ar    1  UNL1       -0.0000
     19 C         143.7230  139.6992  161.2187 C.ar    1  UNL1       -0.0003
     20 C         142.3238  139.6484  161.7570 C.ar    1  UNL1       -0.0039
     21 C         139.3098  140.5805  162.3705 C.3     1  UNL1        0.1158
     22 O         139.5588  139.1267  162.0980 O.3     1  UNL1       -0.3820
     23 H         140.1587  139.0378  161.3409 H       1  UNL1        0.2107
     24 C         139.0607  142.0344  162.6430 C.ar    1  UNL1        0.0024
     25 C         138.1556  142.4423  163.7675 C.ar    1  UNL1       -0.0020
     26 C         137.9065  143.8962  164.0401 C.ar    1  UNL1       -0.0002
     27 C         138.5625  144.9421  163.1881 C.ar    1  UNL1       -0.0000
     28 C         139.4675  144.5342  162.0637 C.ar    1  UNL1       -0.0002
     29 C         140.1234  145.5801  161.2117 C.ar    1  UNL1       -0.0000
     30 C         141.0285  145.1721  160.0872 C.ar    1  UNL1       -0.0000
     31 C         141.2776  143.7183  159.8147 C.ar    1  UNL1       -0.0000
     32 C         140.6216  142.6724  160.6666 C.ar    1  UNL1       -0.0002
     33 C         139.7166  143.0803  161.7911 C.ar    1  UNL1       -0.0018
     34 C         138.1436  140.5576  161.4273 C.3     1  UNL1        0.0491
     35 C         138.0111  139.4492  160.4254 C.3     1  UNL1        0.0750
     36 N         138.6202  139.5937  159.0622 N.3     1  UNL1       -0.2702
     37 C         139.6265  138.5911  158.5802 C.3     1  UNL1        0.0897
     38 C         138.2230  140.7407  158.1810 C.3     1  UNL1        0.0897
@<TRIPOS>BOND
     1    13    14    1
     2    14     2    1
     3     2     3   ar
     4     3     4   ar
     5     4     5   ar
     6     5     6   ar
     7     6     7   ar
     8     7     8    1
     9     7     9   ar
    10     9    10   ar
    11    10    11   ar
    12    11    12   ar
    13    12     1    1
    14     1    15    1
    15    15    16   ar
    16    16    17   ar
    17    17    18   ar
    18    18    19   ar
    19    19    20   ar
    20     1    21    1
    21    21    22    1
    22    21    34    1
    23    34    35    1
    24    35    36    1
    25    36    37    1
    26    36    38    1
    27    21    24    1
    28    24    25   ar
    29    25    26   ar
    30    26    27   ar
    31    27    28   ar
    32    28    29   ar
    33    29    30   ar
    34    30    31   ar
    35    31    32   ar
    36    32    33   ar
    37    12     2   ar
    38    20    15   ar
    39    33    24   ar
    40    10     4   ar
    41    33    28   ar
    42    22    23    1
