@<TRIPOS>MOLECULE
*****
 29 32 0 0 0
SMALL
GASTEIGER

@<TRIPOS>ATOM
      1 C         141.4601  142.0788  166.2782 C.3     1  UNL1        0.0510
      2 C         140.9672  142.5162  167.6257 C.3     1  UNL1        0.0489
      3 C         141.2472  141.6755  168.8359 C.3     1  UNL1        0.1364
      4 C         140.4742  142.9536  168.9731 C.3     1  UNL1        0.0571
      5 C         139.9813  143.3910  170.3206 C.3     1  UNL1        0.0722
      6 N         140.2614  142.5502  171.5308 N.3     1  UNL1       -0.2973
      7 C         141.0344  141.2721  171.3936 C.3     1  UNL1        0.0722
      8 C         141.5273  140.8347  170.0462 C.3     1  UNL1        0.0571
      9 O         142.0203  140.3973  168.6987 O.3     1  UNL1       -0.4828
     10 C         142.5132  139.9599  167.3512 C.ar    1  UNL1        0.1345
     11 C         143.2862  138.6818  167.2139 C.ar    1  UNL1        0.0366
     12 C         143.7791  138.2444  165.8665 C.ar    1  UNL1        0.0031
     13 C         143.4991  139.0851  164.6562 C.ar    1  UNL1       -0.0001
     14 C         142.7261  140.3633  164.7934 C.ar    1  UNL1       -0.0010
     15 C         142.2331  140.8007  166.1410 C.ar    1  UNL1        0.0156
     16 H         139.3574  142.3056  171.9351 H       1  UNL1        0.1233
     17 C         140.6199  144.6010  162.6474 C.ar    1  UNL1        0.0536
     18 C         139.5832  143.6403  163.1495 C.ar    1  UNL1        0.0042
     19 C         139.8632  142.7996  164.3597 C.ar    1  UNL1       -0.0038
     20 C         141.1801  142.9195  165.0679 C.ar    1  UNL1       -0.0182
     21 C         142.2169  143.8803  164.5658 C.ar    1  UNL1       -0.0038
     22 C         141.9368  144.7210  163.3556 C.ar    1  UNL1        0.0042
     23 N         140.7138  144.9414  160.0735 N.am    1  UNL1       -0.2761
     24 C         140.3399  145.4418  161.4372 C.2     1  UNL1        0.2490
     25 O         139.6858  146.7830  161.5907 O.2     1  UNL1       -0.2699
     26 C         141.4303  145.8406  157.7436 C.3     1  UNL1        0.0233
     27 C         140.4337  145.7821  158.8632 C.3     1  UNL1        0.0938
     28 C         141.3678  143.6002  159.9199 C.3     1  UNL1        0.0938
     29 C         140.5327  142.3863  159.6390 C.3     1  UNL1        0.0233
@<TRIPOS>BOND
     1    26    27    1
     2    27    23    1
     3    23    28    1
     4    28    29    1
     5    23    24   am
     6    24    25    2
     7    24    17    1
     8    17    18   ar
     9    18    19   ar
    10    19    20   ar
    11    20     1    1
    12     1     2    1
    13     2     3    1
    14     3     4    1
    15     4     5    1
    16     5     6    1
    17     6     7    1
    18     7     8    1
    19     3     9    1
    20     9    10    1
    21    10    11   ar
    22    11    12   ar
    23    12    13   ar
    24    13    14   ar
    25    14    15   ar
    26    20    21   ar
    27    21    22   ar
    28    22    17   ar
    29    15     1    1
    30     8     3    1
    31    15    10   ar
    32     6    16    1
@<TRIPOS>MOLECULE
*****
 29 32 0 0 0
SMALL
GASTEIGER

@<TRIPOS>ATOM
      1 C         139.8082  141.9325  165.7348 C.3     1  UNL1        0.0510
      2 C         140.1710  142.4696  167.0876 C.3     1  UNL1        0.0489
      3 C         140.1447  141.5664  168.2849 C.3     1  UNL1        0.1364
      4 C         140.5339  143.0066  168.4403 C.3     1  UNL1        0.0571
      5 C         140.8967  143.5436  169.7931 C.3     1  UNL1        0.0722
      6 N         140.8703  142.6403  170.9903 N.3     1  UNL1       -0.2973
      7 C         140.4811  141.2001  170.8349 C.3     1  UNL1        0.0722
      8 C         140.1183  140.6631  169.4821 C.3     1  UNL1        0.0571
      9 O         139.7554  140.1261  168.1293 O.3     1  UNL1       -0.4828
     10 C         139.3926  139.5891  166.7766 C.ar    1  UNL1        0.1345
     11 C         139.0033  138.1488  166.6211 C.ar    1  UNL1        0.0366
     12 C         138.6405  137.6118  165.2684 C.ar    1  UNL1        0.0031
     13 C         138.6669  138.5150  164.0711 C.ar    1  UNL1       -0.0001
     14 C         139.0561  139.9552  164.2265 C.ar    1  UNL1       -0.0010
     15 C         139.4190  140.4923  165.5793 C.ar    1  UNL1        0.0156
     16 H         140.2157  143.0521  171.6554 H       1  UNL1        0.1233
     17 C         139.8874  144.6422  162.1429 C.ar    1  UNL1        0.0536
     18 C         141.1579  144.3346  162.8785 C.ar    1  UNL1        0.0042
     19 C         141.1315  143.4314  164.0758 C.ar    1  UNL1       -0.0038
     20 C         139.8346  142.8358  164.5375 C.ar    1  UNL1       -0.0182
     21 C         138.5640  143.1433  163.8019 C.ar    1  UNL1       -0.0038
     22 C         138.5904  144.0466  162.6046 C.ar    1  UNL1        0.0042
     23 N         140.3790  145.0201  159.6200 N.am    1  UNL1       -0.2761
     24 C         139.9138  145.5454  160.9457 C.2     1  UNL1        0.2490
     25 O         139.4749  146.9741  161.0741 O.2     1  UNL1       -0.2699
     26 C         141.6035  145.9376  157.5203 C.3     1  UNL1        0.0233
     27 C         140.4054  145.9233  158.4227 C.3     1  UNL1        0.0938
     28 C         140.8179  143.5914  159.4915 C.3     1  UNL1        0.0938
     29 C         139.8249  142.5330  159.1123 C.3     1  UNL1        0.0233
@<TRIPOS>BOND
     1    26    27    1
     2    27    23    1
     3    23    28    1
     4    28    29    1
     5    23    24   am
     6    24    25    2
     7    24    17    1
     8    17    18   ar
     9    18    19   ar
    10    19    20   ar
    11    20     1    1
    12     1     2    1
    13     2     3    1
    14     3     4    1
    15     4     5    1
    16     5     6    1
    17     6     7    1
    18     7     8    1
    19     3     9    1
    20     9    10    1
    21    10    11   ar
    22    11    12   ar
    23    12    13   ar
    24    13    14   ar
    25    14    15   ar
    26    20    21   ar
    27    21    22   ar
    28    22    17   ar
    29    15     1    1
    30     8     3    1
    31    15    10   ar
    32     6    16    1
@<TRIPOS>MOLECULE
*****
 29 32 0 0 0
SMALL
GASTEIGER

@<TRIPOS>ATOM
      1 C         141.5231  140.9220  166.2884 C.3     1  UNL1        0.0510
      2 C         142.1498  141.5459  167.5001 C.3     1  UNL1        0.0489
      3 C         141.5105  141.3766  168.8464 C.3     1  UNL1        0.1364
      4 C         142.7765  142.1698  168.7117 C.3     1  UNL1        0.0571
      5 C         143.4031  142.7937  169.9233 C.3     1  UNL1        0.0722
      6 N         142.7638  142.6243  171.2697 N.3     1  UNL1       -0.2973
      7 C         141.4979  141.8312  171.4044 C.3     1  UNL1        0.0722
      8 C         140.8712  141.2073  170.1928 C.3     1  UNL1        0.0571
      9 O         140.2445  140.5834  168.9811 O.3     1  UNL1       -0.4828
     10 C         139.6179  139.9595  167.7695 C.ar    1  UNL1        0.1345
     11 C         138.3519  139.1663  167.9042 C.ar    1  UNL1        0.0366
     12 C         137.7252  138.5424  166.6926 C.ar    1  UNL1        0.0031
     13 C         138.3645  138.7118  165.3462 C.ar    1  UNL1       -0.0001
     14 C         139.6304  139.5049  165.2115 C.ar    1  UNL1       -0.0010
     15 C         140.2572  140.1289  166.4232 C.ar    1  UNL1        0.0156
     16 H         142.5632  143.5610  171.6202 H       1  UNL1        0.1233
     17 C         143.4410  141.4300  162.2494 C.ar    1  UNL1        0.0536
     18 C         142.3082  142.3236  162.6595 C.ar    1  UNL1        0.0042
     19 C         141.6689  142.1543  164.0059 C.ar    1  UNL1       -0.0038
     20 C         142.1624  141.0914  164.9421 C.ar    1  UNL1       -0.0182
     21 C         143.2952  140.1977  164.5320 C.ar    1  UNL1       -0.0038
     22 C         143.9345  140.3670  163.1856 C.ar    1  UNL1        0.0042
     23 N         143.6202  140.7656  159.7442 N.am    1  UNL1       -0.2761
     24 C         144.0803  141.5993  160.9031 C.2     1  UNL1        0.2490
     25 O         145.1797  142.6025  160.7157 O.2     1  UNL1       -0.2699
     26 C         143.8252  142.0526  157.4966 C.3     1  UNL1        0.0233
     27 C         144.2595  140.9349  158.3978 C.3     1  UNL1        0.0938
     28 C         142.5208  139.7624  159.9315 C.3     1  UNL1        0.0938
     29 C         142.8539  138.3150  160.1411 C.3     1  UNL1        0.0233
@<TRIPOS>BOND
     1    26    27    1
     2    27    23    1
     3    23    28    1
     4    28    29    1
     5    23    24   am
     6    24    25    2
     7    24    17    1
     8    17    18   ar
     9    18    19   ar
    10    19    20   ar
    11    20     1    1
    12     1     2    1
    13     2     3    1
    14     3     4    1
    15     4     5    1
    16     5     6    1
    17     6     7    1
    18     7     8    1
    19     3     9    1
    20     9    10    1
    21    10    11   ar
    22    11    12   ar
    23    12    13   ar
    24    13    14   ar
    25    14    15   ar
    26    20    21   ar
    27    21    22   ar
    28    22    17   ar
    29    15     1    1
    30     8     3    1
    31    15    10   ar
    32     6    16    1
@<TRIPOS>MOLECULE
*****
 29 32 0 0 0
SMALL
GASTEIGER

@<TRIPOS>ATOM
      1 C         142.0189  141.6682  166.1717 C.3     1  UNL1        0.0510
      2 C         141.3742  142.4074  167.3066 C.3     1  UNL1        0.0489
      3 C         141.3766  141.8153  168.6848 C.3     1  UNL1        0.1364
      4 C         140.7295  143.1465  168.4415 C.3     1  UNL1        0.0571
      5 C         140.0849  143.8856  169.5765 C.3     1  UNL1        0.0722
      6 N         140.0872  143.2935  170.9547 N.3     1  UNL1       -0.2973
      7 C         140.7343  141.9623  171.1979 C.3     1  UNL1        0.0722
      8 C         141.3789  141.2232  170.0630 C.3     1  UNL1        0.0571
      9 O         142.0236  140.4840  168.9281 O.3     1  UNL1       -0.4828
     10 C         142.6683  139.7449  167.7932 C.ar    1  UNL1        0.1345
     11 C         143.3154  138.4136  168.0364 C.ar    1  UNL1        0.0366
     12 C         143.9600  137.6745  166.9015 C.ar    1  UNL1        0.0031
     13 C         143.9577  138.2666  165.5233 C.ar    1  UNL1       -0.0001
     14 C         143.3106  139.5978  165.2800 C.ar    1  UNL1       -0.0010
     15 C         142.6659  140.3370  166.4150 C.ar    1  UNL1        0.0156
     16 H         139.1115  143.2028  171.2378 H       1  UNL1        0.1233
     17 C         142.0118  143.4444  162.0371 C.ar    1  UNL1        0.0536
     18 C         142.8876  144.0313  163.1040 C.ar    1  UNL1        0.0042
     19 C         142.8900  143.4393  164.4822 C.ar    1  UNL1       -0.0038
     20 C         142.0165  142.2602  164.7935 C.ar    1  UNL1       -0.0182
     21 C         141.1406  141.6732  163.7265 C.ar    1  UNL1       -0.0038
     22 C         141.1383  142.2653  162.3483 C.ar    1  UNL1        0.0042
     23 N         140.8759  144.9166  160.2227 N.am    1  UNL1       -0.2761
     24 C         142.0094  144.0365  160.6589 C.2     1  UNL1        0.2490
     25 O         143.1407  143.7484  159.7169 O.2     1  UNL1       -0.2699
     26 C         140.2510  144.7561  157.7059 C.3     1  UNL1        0.0233
     27 C         140.8735  145.5087  158.8445 C.3     1  UNL1        0.0938
     28 C         139.7446  145.2047  161.1647 C.3     1  UNL1        0.0938
     29 C         139.8083  146.3988  162.0703 C.3     1  UNL1        0.0233
@<TRIPOS>BOND
     1    26    27    1
     2    27    23    1
     3    23    28    1
     4    28    29    1
     5    23    24   am
     6    24    25    2
     7    24    17    1
     8    17    18   ar
     9    18    19   ar
    10    19    20   ar
    11    20     1    1
    12     1     2    1
    13     2     3    1
    14     3     4    1
    15     4     5    1
    16     5     6    1
    17     6     7    1
    18     7     8    1
    19     3     9    1
    20     9    10    1
    21    10    11   ar
    22    11    12   ar
    23    12    13   ar
    24    13    14   ar
    25    14    15   ar
    26    20    21   ar
    27    21    22   ar
    28    22    17   ar
    29    15     1    1
    30     8     3    1
    31    15    10   ar
    32     6    16    1
@<TRIPOS>MOLECULE
*****
 29 32 0 0 0
SMALL
GASTEIGER

@<TRIPOS>ATOM
      1 C         141.9665  142.2108  162.6429 C.3     1  UNL1        0.0510
      2 C         142.5975  141.3047  161.6274 C.3     1  UNL1        0.0489
      3 C         142.5525  141.6633  160.1716 C.3     1  UNL1        0.1364
      4 C         143.2285  140.3988  160.6120 C.3     1  UNL1        0.0571
      5 C         143.8594  139.4928  159.5966 C.3     1  UNL1        0.0722
      6 N         143.8144  139.8514  158.1408 N.3     1  UNL1       -0.2973
      7 C         143.1384  141.1159  157.7004 C.3     1  UNL1        0.0722
      8 C         142.5074  142.0218  158.7158 C.3     1  UNL1        0.0571
      9 O         141.8764  142.9279  159.7312 O.3     1  UNL1       -0.4828
     10 C         141.2455  143.8338  160.7466 C.ar    1  UNL1        0.1345
     11 C         140.5694  145.0984  160.3062 C.ar    1  UNL1        0.0366
     12 C         139.9385  146.0044  161.3216 C.ar    1  UNL1        0.0031
     13 C         139.9835  145.6458  162.7774 C.ar    1  UNL1       -0.0001
     14 C         140.6595  144.3813  163.2178 C.ar    1  UNL1       -0.0010
     15 C         141.2905  143.4753  162.2024 C.ar    1  UNL1        0.0156
     16 H         143.3428  139.0835  157.6629 H       1  UNL1        0.1233
     17 C         142.1016  141.1351  167.0103 C.ar    1  UNL1        0.0536
     18 C         141.0485  140.5397  166.1235 C.ar    1  UNL1        0.0042
     19 C         141.0035  140.8983  164.6677 C.ar    1  UNL1       -0.0038
     20 C         142.0115  141.8522  164.0987 C.ar    1  UNL1       -0.0182
     21 C         143.0646  142.4477  164.9855 C.ar    1  UNL1       -0.0038
     22 C         143.1097  142.0892  166.4413 C.ar    1  UNL1        0.0042
     23 N         141.3543  141.5735  169.4597 N.am    1  UNL1       -0.2761
     24 C         142.1466  140.7766  168.4661 C.2     1  UNL1        0.2490
     25 O         142.9840  139.6211  168.9284 O.2     1  UNL1       -0.2699
     26 C         140.4790  140.1616  171.4573 C.3     1  UNL1        0.0233
     27 C         141.3993  141.2149  170.9155 C.3     1  UNL1        0.0938
     28 C         140.5168  142.7290  168.9974 C.3     1  UNL1        0.0938
     29 C         140.4689  143.9914  169.8061 C.3     1  UNL1        0.0233
@<TRIPOS>BOND
     1    26    27    1
     2    27    23    1
     3    23    28    1
     4    28    29    1
     5    23    24   am
     6    24    25    2
     7    24    17    1
     8    17    18   ar
     9    18    19   ar
    10    19    20   ar
    11    20     1    1
    12     1     2    1
    13     2     3    1
    14     3     4    1
    15     4     5    1
    16     5     6    1
    17     6     7    1
    18     7     8    1
    19     3     9    1
    20     9    10    1
    21    10    11   ar
    22    11    12   ar
    23    12    13   ar
    24    13    14   ar
    25    14    15   ar
    26    20    21   ar
    27    21    22   ar
    28    22    17   ar
    29    15     1    1
    30     8     3    1
    31    15    10   ar
    32     6    16    1
@<TRIPOS>MOLECULE
*****
 29 32 0 0 0
SMALL
GASTEIGER

@<TRIPOS>ATOM
      1 C         140.3015  140.3698  162.4575 C.3     1  UNL1        0.0510
      2 C         140.3172  141.8694  162.4915 C.3     1  UNL1        0.0489
      3 C         139.7089  142.5997  163.6518 C.3     1  UNL1        0.1364
      4 C         140.3330  143.3689  162.5254 C.3     1  UNL1        0.0571
      5 C         140.3487  144.8684  162.5594 C.3     1  UNL1        0.0722
      6 N         139.7404  145.5987  163.7197 N.3     1  UNL1       -0.2973
      7 C         139.1163  144.8296  164.8462 C.3     1  UNL1        0.0722
      8 C         139.1006  143.3301  164.8122 C.3     1  UNL1        0.0571
      9 O         139.0848  141.8305  164.7783 O.3     1  UNL1       -0.4828
     10 C         139.0691  140.3310  164.7444 C.ar    1  UNL1        0.1345
     11 C         138.4450  139.5618  165.8708 C.ar    1  UNL1        0.0366
     12 C         138.4293  138.0623  165.8369 C.ar    1  UNL1        0.0031
     13 C         139.0376  137.3319  164.6765 C.ar    1  UNL1       -0.0001
     14 C         139.6617  138.1011  163.5501 C.ar    1  UNL1       -0.0010
     15 C         139.6774  139.6006  163.5840 C.ar    1  UNL1        0.0156
     16 H         139.0134  146.2041  163.3383 H       1  UNL1        0.1233
     17 C         142.1265  138.1787  158.9764 C.ar    1  UNL1        0.0536
     18 C         140.6828  138.5835  158.9342 C.ar    1  UNL1        0.0042
     19 C         140.0745  139.3139  160.0946 C.ar    1  UNL1       -0.0038
     20 C         140.9098  139.6394  161.2971 C.ar    1  UNL1       -0.0182
     21 C         142.3536  139.2347  161.3393 C.ar    1  UNL1       -0.0038
     22 C         142.9620  138.5043  160.1789 C.ar    1  UNL1        0.0042
     23 N         143.2581  138.2155  156.6380 N.am    1  UNL1       -0.2761
     24 C         142.7348  137.4484  157.8160 C.2     1  UNL1        0.2490
     25 O         142.8199  135.9508  157.8336 O.2     1  UNL1       -0.2699
     26 C         142.9858  136.7661  154.4990 C.3     1  UNL1        0.0233
     27 C         143.8664  137.4851  155.4776 C.3     1  UNL1        0.0938
     28 C         143.1731  139.7130  156.6203 C.3     1  UNL1        0.0938
     29 C         144.2919  140.5345  157.1888 C.3     1  UNL1        0.0233
@<TRIPOS>BOND
     1    26    27    1
     2    27    23    1
     3    23    28    1
     4    28    29    1
     5    23    24   am
     6    24    25    2
     7    24    17    1
     8    17    18   ar
     9    18    19   ar
    10    19    20   ar
    11    20     1    1
    12     1     2    1
    13     2     3    1
    14     3     4    1
    15     4     5    1
    16     5     6    1
    17     6     7    1
    18     7     8    1
    19     3     9    1
    20     9    10    1
    21    10    11   ar
    22    11    12   ar
    23    12    13   ar
    24    13    14   ar
    25    14    15   ar
    26    20    21   ar
    27    21    22   ar
    28    22    17   ar
    29    15     1    1
    30     8     3    1
    31    15    10   ar
    32     6    16    1
@<TRIPOS>MOLECULE
*****
 29 32 0 0 0
SMALL
GASTEIGER

@<TRIPOS>ATOM
      1 C         141.0808  140.2037  161.5785 C.3     1  UNL1        0.0510
      2 C         142.4236  140.8705  161.6285 C.3     1  UNL1        0.0489
      3 C         143.3383  140.6285  162.7924 C.3     1  UNL1        0.1364
      4 C         143.7663  141.5373  161.6785 C.3     1  UNL1        0.0571
      5 C         145.1090  142.2041  161.7284 C.3     1  UNL1        0.0722
      6 N         146.0237  141.9621  162.8923 N.3     1  UNL1       -0.2973
      7 C         145.5957  141.0533  164.0063 C.3     1  UNL1        0.0722
      8 C         144.2531  140.3865  163.9563 C.3     1  UNL1        0.0571
      9 O         142.9103  139.7197  163.9064 O.3     1  UNL1       -0.4828
     10 C         141.5676  139.0529  163.8564 C.ar    1  UNL1        0.1345
     11 C         141.1396  138.1440  164.9704 C.ar    1  UNL1        0.0366
     12 C         139.7969  137.4772  164.9204 C.ar    1  UNL1        0.0031
     13 C         138.8822  137.7192  163.7565 C.ar    1  UNL1       -0.0001
     14 C         139.3101  138.6280  162.6426 C.ar    1  UNL1       -0.0010
     15 C         140.6529  139.2949  162.6925 C.ar    1  UNL1        0.0156
     16 H         146.2139  142.8723  163.3115 H       1  UNL1        0.1233
     17 C         138.3366  140.9296  158.0868 C.ar    1  UNL1        0.0536
     18 C         139.2750  139.7595  158.0726 C.ar    1  UNL1        0.0042
     19 C         140.1898  139.5176  159.2365 C.ar    1  UNL1       -0.0038
     20 C         140.1661  140.4456  160.4146 C.ar    1  UNL1       -0.0182
     21 C         139.2277  141.6158  160.4289 C.ar    1  UNL1       -0.0038
     22 C         138.3129  141.8578  159.2650 C.ar    1  UNL1        0.0042
     23 N         137.8692  142.0415  155.7857 N.am    1  UNL1       -0.2761
     24 C         137.4219  141.1716  156.9229 C.2     1  UNL1        0.2490
     25 O         136.0598  140.5438  156.8962 O.2     1  UNL1       -0.2699
     26 C         136.7546  143.6763  154.1018 C.3     1  UNL1        0.0233
     27 C         136.9544  142.2835  154.6218 C.3     1  UNL1        0.0938
     28 C         139.2312  142.6694  155.8123 C.3     1  UNL1        0.0938
     29 C         139.4320  143.9972  156.4805 C.3     1  UNL1        0.0233
@<TRIPOS>BOND
     1    26    27    1
     2    27    23    1
     3    23    28    1
     4    28    29    1
     5    23    24   am
     6    24    25    2
     7    24    17    1
     8    17    18   ar
     9    18    19   ar
    10    19    20   ar
    11    20     1    1
    12     1     2    1
    13     2     3    1
    14     3     4    1
    15     4     5    1
    16     5     6    1
    17     6     7    1
    18     7     8    1
    19     3     9    1
    20     9    10    1
    21    10    11   ar
    22    11    12   ar
    23    12    13   ar
    24    13    14   ar
    25    14    15   ar
    26    20    21   ar
    27    21    22   ar
    28    22    17   ar
    29    15     1    1
    30     8     3    1
    31    15    10   ar
    32     6    16    1
@<TRIPOS>MOLECULE
*****
 29 32 0 0 0
SMALL
GASTEIGER

@<TRIPOS>ATOM
      1 C         140.4016  142.3994  161.4644 C.3     1  UNL1        0.0510
      2 C         141.8774  142.1327  161.4965 C.3     1  UNL1        0.0489
      3 C         142.6932  142.5709  162.6766 C.3     1  UNL1        0.1364
      4 C         143.3531  141.8661  161.5287 C.3     1  UNL1        0.0571
      5 C         144.8289  141.5994  161.5609 C.3     1  UNL1        0.0722
      6 N         145.6446  142.0376  162.7410 N.3     1  UNL1       -0.2973
      7 C         144.9846  142.7425  163.8888 C.3     1  UNL1        0.0722
      8 C         143.5089  143.0091  163.8566 C.3     1  UNL1        0.0571
      9 O         142.0331  143.2758  163.8245 O.3     1  UNL1       -0.4828
     10 C         140.5574  143.5424  163.7923 C.ar    1  UNL1        0.1345
     11 C         139.8973  144.2473  164.9402 C.ar    1  UNL1        0.0366
     12 C         138.4216  144.5139  164.9080 C.ar    1  UNL1        0.0031
     13 C         137.6058  144.0757  163.7279 C.ar    1  UNL1       -0.0001
     14 C         138.2658  143.3709  162.5800 C.ar    1  UNL1       -0.0010
     15 C         139.7416  143.1042  162.6122 C.ar    1  UNL1        0.0156
     16 H         146.3645  142.6660  162.3843 H       1  UNL1        0.1233
     17 C         137.9543  141.0848  157.9242 C.ar    1  UNL1        0.0536
     18 C         138.4286  142.5044  158.0226 C.ar    1  UNL1        0.0042
     19 C         139.2443  142.9426  159.2026 C.ar    1  UNL1       -0.0038
     20 C         139.5858  141.9612  160.2843 C.ar    1  UNL1       -0.0182
     21 C         139.1116  140.5415  160.1860 C.ar    1  UNL1       -0.0038
     22 C         138.2958  140.1033  159.0059 C.ar    1  UNL1        0.0042
     23 N         137.8205  140.2089  155.4819 N.am    1  UNL1       -0.2761
     24 C         137.1386  140.6466  156.7441 C.2     1  UNL1        0.2490
     25 O         135.6408  140.6462  156.8264 O.2     1  UNL1       -0.2699
     26 C         136.5826  138.3371  154.1727 C.3     1  UNL1        0.0233
     27 C         137.0048  139.7707  154.3019 C.3     1  UNL1        0.0938
     28 C         139.3183  140.2093  155.3997 C.3     1  UNL1        0.0938
     29 C         140.0917  138.9876  155.7989 C.3     1  UNL1        0.0233
@<TRIPOS>BOND
     1    26    27    1
     2    27    23    1
     3    23    28    1
     4    28    29    1
     5    23    24   am
     6    24    25    2
     7    24    17    1
     8    17    18   ar
     9    18    19   ar
    10    19    20   ar
    11    20     1    1
    12     1     2    1
    13     2     3    1
    14     3     4    1
    15     4     5    1
    16     5     6    1
    17     6     7    1
    18     7     8    1
    19     3     9    1
    20     9    10    1
    21    10    11   ar
    22    11    12   ar
    23    12    13   ar
    24    13    14   ar
    25    14    15   ar
    26    20    21   ar
    27    21    22   ar
    28    22    17   ar
    29    15     1    1
    30     8     3    1
    31    15    10   ar
    32     6    16    1
@<TRIPOS>MOLECULE
*****
 29 32 0 0 0
SMALL
GASTEIGER

@<TRIPOS>ATOM
      1 C         141.7223  140.0327  163.6182 C.3     1  UNL1        0.0510
      2 C         140.5889  139.4702  164.4240 C.3     1  UNL1        0.0489
      3 C         140.3835  139.9151  165.8417 C.3     1  UNL1        0.1364
      4 C         139.4557  138.9078  165.2298 C.3     1  UNL1        0.0571
      5 C         138.3224  138.3454  166.0357 C.3     1  UNL1        0.0722
      6 N         138.1170  138.7903  167.4534 N.3     1  UNL1       -0.2973
      7 C         139.0449  139.7976  168.0653 C.3     1  UNL1        0.0722
      8 C         140.1781  140.3600  167.2594 C.3     1  UNL1        0.0571
      9 O         141.3115  140.9224  166.4536 O.3     1  UNL1       -0.4828
     10 C         142.4447  141.4848  165.6478 C.ar    1  UNL1        0.1345
     11 C         143.3727  142.4922  166.2596 C.ar    1  UNL1        0.0366
     12 C         144.5059  143.0545  165.4538 C.ar    1  UNL1        0.0031
     13 C         144.7113  142.6097  164.0361 C.ar    1  UNL1       -0.0001
     14 C         143.7835  141.6024  163.4242 C.ar    1  UNL1       -0.0010
     15 C         142.6501  141.0399  164.2301 C.ar    1  UNL1        0.0156
     16 H         138.1661  137.9536  168.0346 H       1  UNL1        0.1233
     17 C         142.3385  138.6980  159.3651 C.ar    1  UNL1        0.0536
     18 C         143.1465  138.0826  160.4688 C.ar    1  UNL1        0.0042
     19 C         142.9411  138.5275  161.8865 C.ar    1  UNL1       -0.0038
     20 C         141.9277  139.5878  162.2005 C.ar    1  UNL1       -0.0182
     21 C         141.1196  140.2033  161.0967 C.ar    1  UNL1       -0.0038
     22 C         141.3250  139.7584  159.6790 C.ar    1  UNL1        0.0042
     23 N         143.3627  139.0901  157.0098 N.am    1  UNL1       -0.2761
     24 C         142.5439  138.2531  157.9474 C.2     1  UNL1        0.2490
     25 O         141.9304  136.9713  157.4672 O.2     1  UNL1       -0.2699
     26 C         144.4331  137.4556  155.2972 C.3     1  UNL1        0.0233
     27 C         143.5681  138.6452  155.5921 C.3     1  UNL1        0.0938
     28 C         143.9762  140.3720  157.4900 C.3     1  UNL1        0.0938
     29 C         145.2321  140.8875  156.8521 C.3     1  UNL1        0.0233
@<TRIPOS>BOND
     1    26    27    1
     2    27    23    1
     3    23    28    1
     4    28    29    1
     5    23    24   am
     6    24    25    2
     7    24    17    1
     8    17    18   ar
     9    18    19   ar
    10    19    20   ar
    11    20     1    1
    12     1     2    1
    13     2     3    1
    14     3     4    1
    15     4     5    1
    16     5     6    1
    17     6     7    1
    18     7     8    1
    19     3     9    1
    20     9    10    1
    21    10    11   ar
    22    11    12   ar
    23    12    13   ar
    24    13    14   ar
    25    14    15   ar
    26    20    21   ar
    27    21    22   ar
    28    22    17   ar
    29    15     1    1
    30     8     3    1
    31    15    10   ar
    32     6    16    1
