@<TRIPOS>MOLECULE
*****
 40 44 0 0 0
SMALL
GASTEIGER

@<TRIPOS>ATOM
      1 C         140.6596  139.6977  157.5950 C.3     1  UNL1        0.1035
      2 C         140.4778  138.2770  158.0407 C.3     1  UNL1        0.0933
      3 N         141.3895  137.8158  156.9425 N.3     1  UNL1       -0.2711
      4 C         141.5714  139.2365  156.4968 C.3     1  UNL1        0.0933
      5 C         141.9056  136.4851  156.4811 C.3     1  UNL1        0.0576
      6 C         143.1606  135.9197  157.0772 C.3     1  UNL1        0.0163
      7 C         143.6766  134.5890  156.6157 C.3     1  UNL1        0.0057
      8 C         142.9377  133.8237  155.5582 C.3     1  UNL1        0.0224
      9 C         141.6827  134.3891  154.9622 C.3     1  UNL1        0.0057
     10 C         141.1666  135.7198  155.4235 C.3     1  UNL1        0.0163
     11 C         143.4538  132.4930  155.0968 C.ar    1  UNL1       -0.0224
     12 C         144.3457  131.6835  155.9908 C.ar    1  UNL1       -0.0030
     13 C         144.8618  130.3528  155.5294 C.ar    1  UNL1        0.0142
     14 C         144.4859  129.8316  154.1740 C.ar    1  UNL1        0.0478
     15 C         143.5940  130.6411  153.2800 C.ar    1  UNL1        0.0142
     16 C         143.0779  131.9718  153.7414 C.ar    1  UNL1       -0.0030
     17 N         145.0020  128.5009  153.7125 N.pl3   1  UNL1       -0.3075
     18 C         146.0281  127.6616  154.4144 C.3     1  UNL1        0.0908
     19 C         146.2428  126.4178  153.6038 C.3     1  UNL1        0.0232
     20 C         145.3494  126.4885  152.4010 C.3     1  UNL1        0.0232
     21 C         144.5824  127.7760  152.4683 C.3     1  UNL1        0.0908
     22 O         137.7549  140.0286  158.2681 O.2     1  UNL1       -0.2733
     23 C         138.6912  141.1939  158.3930 C.2     1  UNL1        0.2426
     24 N         140.1435  141.0284  158.0564 N.am    1  UNL1       -0.3018
     25 H         140.7580  141.7932  158.1384 H       1  UNL1        0.1495
     26 C         138.1751  142.5245  158.8544 C.3     1  UNL1        0.1759
     27 N         138.6531  143.1053  160.1523 N.am    1  UNL1       -0.2931
     28 C         138.2112  142.5012  161.4522 C.2     1  UNL1        0.2462
     29 O         137.2914  141.3163  161.4543 O.2     1  UNL1       -0.2701
     30 H         139.2568  143.8830  160.1509 H       1  UNL1        0.1502
     31 C         138.6891  143.0819  162.7500 C.ar    1  UNL1        0.0533
     32 C         137.7685  143.9305  163.5761 C.ar    1  UNL1        0.0045
     33 C         138.2465  144.5112  164.8739 C.ar    1  UNL1        0.0001
     34 C         139.6449  144.2433  165.3456 C.ar    1  UNL1        0.0039
     35 C         140.5655  143.3947  164.5195 C.ar    1  UNL1        0.0716
     36 C         140.0876  142.8141  163.2217 C.ar    1  UNL1        0.0084
     37 C         141.9640  143.1269  164.9912 C.3     1  UNL1        0.4186
     38 F         143.3625  142.8590  165.4629 F       1  UNL1       -0.1659
     39 F         141.4418  142.8151  166.3624 F       1  UNL1       -0.1659
     40 F         142.4862  143.4387  163.6201 F       1  UNL1       -0.1659
@<TRIPOS>BOND
     1    22    23    2
     2    23    26    1
     3    26    27    1
     4    27    28   am
     5    28    29    2
     6    28    31    1
     7    31    32   ar
     8    32    33   ar
     9    33    34   ar
    10    34    35   ar
    11    35    37    1
    12    37    38    1
    13    37    39    1
    14    37    40    1
    15    35    36   ar
    16    23    24   am
    17    24     1    1
    18     1     2    1
    19     2     3    1
    20     5     3    1
    21     5     6    1
    22     6     7    1
    23     7     8    1
    24     8    11    1
    25    11    12   ar
    26    12    13   ar
    27    13    14   ar
    28    14    17    1
    29    17    18    1
    30    18    19    1
    31    19    20    1
    32    20    21    1
    33    14    15   ar
    34    15    16   ar
    35     8     9    1
    36     9    10    1
    37     3     4    1
    38    36    31   ar
    39     4     1    1
    40    10     5    1
    41    16    11   ar
    42    21    17    1
    43    27    30    1
    44    24    25    1
@<TRIPOS>MOLECULE
*****
 40 44 0 0 0
SMALL
GASTEIGER

@<TRIPOS>ATOM
      1 C         139.7880  139.9034  156.7817 C.3     1  UNL1        0.1035
      2 C         139.8126  138.5608  157.4502 C.3     1  UNL1        0.0933
      3 N         140.6989  138.0345  156.3605 N.3     1  UNL1       -0.2711
      4 C         140.6743  139.3771  155.6920 C.3     1  UNL1        0.0933
      5 C         141.3431  136.7130  156.0626 C.3     1  UNL1        0.0576
      6 C         140.7118  135.7765  155.0756 C.3     1  UNL1        0.0163
      7 C         141.3560  134.4549  154.7778 C.3     1  UNL1        0.0057
      8 C         142.6314  134.0700  155.4670 C.3     1  UNL1        0.0224
      9 C         143.2627  135.0066  156.4540 C.3     1  UNL1        0.0057
     10 C         142.6186  136.3281  156.7519 C.3     1  UNL1        0.0163
     11 C         143.2755  132.7486  155.1691 C.ar    1  UNL1       -0.0224
     12 C         144.2535  132.1552  156.1395 C.ar    1  UNL1       -0.0030
     13 C         144.8976  130.8337  155.8416 C.ar    1  UNL1        0.0142
     14 C         144.5638  130.1056  154.5734 C.ar    1  UNL1        0.0478
     15 C         143.5859  130.6989  153.6030 C.ar    1  UNL1        0.0142
     16 C         142.9418  132.0204  153.9009 C.ar    1  UNL1       -0.0030
     17 N         145.2080  128.7840  154.2755 N.pl3   1  UNL1       -0.3075
     18 C         145.5349  128.2498  152.9125 C.3     1  UNL1        0.0908
     19 C         146.1672  126.9003  153.0829 C.3     1  UNL1        0.0232
     20 C         146.2311  126.6006  154.5513 C.3     1  UNL1        0.0232
     21 C         145.6382  127.7648  155.2883 C.3     1  UNL1        0.0908
     22 O         137.4690  140.8482  155.1294 O.2     1  UNL1       -0.2733
     23 C         137.9843  141.6973  156.2535 C.2     1  UNL1        0.2426
     24 N         139.1438  141.2249  157.0796 N.am    1  UNL1       -0.3018
     25 H         139.4820  141.7822  157.8174 H       1  UNL1        0.1495
     26 C         137.3402  143.0187  156.5514 C.3     1  UNL1        0.1759
     27 N         137.7387  144.2392  155.7757 N.am    1  UNL1       -0.2931
     28 C         139.0341  144.9316  156.0801 C.2     1  UNL1        0.2462
     29 O         139.9309  144.4035  157.1603 O.2     1  UNL1       -0.2701
     30 H         137.1501  144.5858  155.0667 H       1  UNL1        0.1502
     31 C         139.4326  146.1521  155.3044 C.ar    1  UNL1        0.0533
     32 C         140.3616  146.0263  154.1336 C.ar    1  UNL1        0.0045
     33 C         140.7601  147.2468  153.3579 C.ar    1  UNL1        0.0001
     34 C         140.2295  148.5930  153.7531 C.ar    1  UNL1        0.0039
     35 C         139.3004  148.7187  154.9240 C.ar    1  UNL1        0.0716
     36 C         138.9020  147.4983  155.6997 C.ar    1  UNL1        0.0084
     37 C         138.7698  150.0649  155.3192 C.3     1  UNL1        0.4186
     38 F         138.2392  151.4111  155.7145 F       1  UNL1       -0.1659
     39 F         138.2282  149.4786  156.5892 F       1  UNL1       -0.1659
     40 F         139.3114  150.6512  154.0492 F       1  UNL1       -0.1659
@<TRIPOS>BOND
     1    22    23    2
     2    23    26    1
     3    26    27    1
     4    27    28   am
     5    28    29    2
     6    28    31    1
     7    31    32   ar
     8    32    33   ar
     9    33    34   ar
    10    34    35   ar
    11    35    37    1
    12    37    38    1
    13    37    39    1
    14    37    40    1
    15    35    36   ar
    16    23    24   am
    17    24     1    1
    18     1     2    1
    19     2     3    1
    20     5     3    1
    21     5     6    1
    22     6     7    1
    23     7     8    1
    24     8    11    1
    25    11    12   ar
    26    12    13   ar
    27    13    14   ar
    28    14    17    1
    29    17    18    1
    30    18    19    1
    31    19    20    1
    32    20    21    1
    33    14    15   ar
    34    15    16   ar
    35     8     9    1
    36     9    10    1
    37     3     4    1
    38    36    31   ar
    39     4     1    1
    40    10     5    1
    41    16    11   ar
    42    21    17    1
    43    27    30    1
    44    24    25    1
@<TRIPOS>MOLECULE
*****
 40 44 0 0 0
SMALL
GASTEIGER

@<TRIPOS>ATOM
      1 C         140.9880  140.1772  156.5847 C.3     1  UNL1        0.1035
      2 C         141.3924  141.1656  155.5314 C.3     1  UNL1        0.0933
      3 N         140.5778  142.2250  156.2127 N.3     1  UNL1       -0.2711
      4 C         140.1734  141.2365  157.2660 C.3     1  UNL1        0.0933
      5 C         140.2878  143.6729  155.9498 C.3     1  UNL1        0.0576
      6 C         141.3239  144.7132  156.2568 C.3     1  UNL1        0.0163
      7 C         141.0338  146.1612  155.9938 C.3     1  UNL1        0.0057
      8 C         139.7076  146.5689  155.4238 C.3     1  UNL1        0.0224
      9 C         138.6715  145.5287  155.1168 C.3     1  UNL1        0.0057
     10 C         138.9615  144.0807  155.3798 C.3     1  UNL1        0.0163
     11 C         139.4176  148.0169  155.1608 C.ar    1  UNL1       -0.0224
     12 C         138.6586  148.8253  156.1710 C.ar    1  UNL1       -0.0030
     13 C         138.3686  150.2733  155.9080 C.ar    1  UNL1        0.0142
     14 C         138.8375  150.9129  154.6348 C.ar    1  UNL1        0.0478
     15 C         139.5964  150.1045  153.6246 C.ar    1  UNL1        0.0142
     16 C         139.8865  148.6566  153.8876 C.ar    1  UNL1       -0.0030
     17 N         138.5475  152.3610  154.3718 N.pl3   1  UNL1       -0.3075
     18 C         138.4342  153.4398  155.4077 C.3     1  UNL1        0.0908
     19 C         138.1365  154.7300  154.7028 C.3     1  UNL1        0.0232
     20 C         138.0658  154.4484  153.2312 C.3     1  UNL1        0.0232
     21 C         138.3198  152.9842  153.0266 C.3     1  UNL1        0.0908
     22 O         143.7088  139.3402  157.5316 O.2     1  UNL1       -0.2733
     23 C         142.6385  138.3107  157.3211 C.2     1  UNL1        0.2426
     24 N         141.2781  138.7291  156.8476 N.am    1  UNL1       -0.3018
     25 H         140.5756  138.0534  156.7095 H       1  UNL1        0.1495
     26 C         142.9285  136.8627  157.5840 C.3     1  UNL1        0.1759
     27 N         142.8732  135.8706  156.4602 N.am    1  UNL1       -0.2931
     28 C         143.1988  134.4289  156.7159 C.2     1  UNL1        0.2462
     29 O         143.5797  133.9792  158.0952 O.2     1  UNL1       -0.2701
     30 H         142.6232  136.1658  155.5549 H       1  UNL1        0.1502
     31 C         143.1435  133.4368  155.5921 C.ar    1  UNL1        0.0533
     32 C         142.2940  133.7146  154.3875 C.ar    1  UNL1        0.0045
     33 C         142.2388  132.7226  153.2638 C.ar    1  UNL1        0.0001
     34 C         143.0330  131.4527  153.3447 C.ar    1  UNL1        0.0039
     35 C         143.8826  131.1749  154.5493 C.ar    1  UNL1        0.0716
     36 C         143.9378  132.1669  155.6730 C.ar    1  UNL1        0.0084
     37 C         144.6768  129.9050  154.6302 C.3     1  UNL1        0.4186
     38 F         145.4711  128.6351  154.7112 F       1  UNL1       -0.1659
     39 F         145.3171  130.3863  155.8984 F       1  UNL1       -0.1659
     40 F         144.0365  129.4237  153.3620 F       1  UNL1       -0.1659
@<TRIPOS>BOND
     1    22    23    2
     2    23    26    1
     3    26    27    1
     4    27    28   am
     5    28    29    2
     6    28    31    1
     7    31    32   ar
     8    32    33   ar
     9    33    34   ar
    10    34    35   ar
    11    35    37    1
    12    37    38    1
    13    37    39    1
    14    37    40    1
    15    35    36   ar
    16    23    24   am
    17    24     1    1
    18     1     2    1
    19     2     3    1
    20     5     3    1
    21     5     6    1
    22     6     7    1
    23     7     8    1
    24     8    11    1
    25    11    12   ar
    26    12    13   ar
    27    13    14   ar
    28    14    17    1
    29    17    18    1
    30    18    19    1
    31    19    20    1
    32    20    21    1
    33    14    15   ar
    34    15    16   ar
    35     8     9    1
    36     9    10    1
    37     3     4    1
    38    36    31   ar
    39     4     1    1
    40    10     5    1
    41    16    11   ar
    42    21    17    1
    43    27    30    1
    44    24    25    1
@<TRIPOS>MOLECULE
*****
 40 44 0 0 0
SMALL
GASTEIGER

@<TRIPOS>ATOM
      1 C         140.1969  142.0406  156.8481 C.3     1  UNL1        0.1035
      2 C         141.0819  141.2876  155.8995 C.3     1  UNL1        0.0933
      3 N         140.7925  140.0153  156.6395 N.3     1  UNL1       -0.2711
      4 C         139.9076  140.7683  157.5881 C.3     1  UNL1        0.0933
      5 C         141.2136  138.5833  156.4920 C.3     1  UNL1        0.0576
      6 C         140.3508  137.6226  155.7287 C.3     1  UNL1        0.0163
      7 C         140.7720  136.1904  155.5812 C.3     1  UNL1        0.0057
      8 C         142.0559  135.7190  156.1970 C.3     1  UNL1        0.0224
      9 C         142.9187  136.6797  156.9604 C.3     1  UNL1        0.0057
     10 C         142.4976  138.1118  157.1079 C.3     1  UNL1        0.0163
     11 C         142.4771  134.2870  156.0495 C.ar    1  UNL1       -0.0224
     12 C         141.5148  133.2748  155.5023 C.ar    1  UNL1       -0.0030
     13 C         141.9359  131.8427  155.3548 C.ar    1  UNL1        0.0142
     14 C         143.3194  131.4228  155.7546 C.ar    1  UNL1        0.0478
     15 C         144.2817  132.4350  156.3018 C.ar    1  UNL1        0.0142
     16 C         143.8605  133.8670  156.4493 C.ar    1  UNL1       -0.0030
     17 N         143.7405  129.9907  155.6071 N.pl3   1  UNL1       -0.3075
     18 C         144.8742  129.4874  154.7635 C.3     1  UNL1        0.0908
     19 C         144.9363  127.9961  154.9124 C.3     1  UNL1        0.0232
     20 C         143.8410  127.5777  155.8479 C.3     1  UNL1        0.0232
     21 C         143.1020  128.8105  156.2773 C.3     1  UNL1        0.0908
     22 O         141.8344  143.9216  158.5157 O.2     1  UNL1       -0.2733
     23 C         140.5945  144.4132  157.8293 C.2     1  UNL1        0.2426
     24 N         139.7758  143.4728  156.9956 N.am    1  UNL1       -0.3018
     25 H         138.9621  143.7954  156.5451 H       1  UNL1        0.1495
     26 C         140.1734  145.8453  157.9767 C.3     1  UNL1        0.1759
     27 N         140.4635  146.8289  156.8820 N.am    1  UNL1       -0.2931
     28 C         139.5758  146.8906  155.6745 C.2     1  UNL1        0.2462
     29 O         138.3980  145.9686  155.5616 O.2     1  UNL1       -0.2701
     30 H         141.2366  147.4340  156.9560 H       1  UNL1        0.1502
     31 C         139.8660  147.8742  154.5797 C.ar    1  UNL1        0.0533
     32 C         140.6643  147.4502  153.3827 C.ar    1  UNL1        0.0045
     33 C         140.9544  148.4338  152.2880 C.ar    1  UNL1        0.0001
     34 C         140.4461  149.8414  152.3904 C.ar    1  UNL1        0.0039
     35 C         139.6478  150.2653  153.5874 C.ar    1  UNL1        0.0716
     36 C         139.3577  149.2817  154.6821 C.ar    1  UNL1        0.0084
     37 C         139.1396  151.6729  153.6898 C.3     1  UNL1        0.4186
     38 F         138.6314  153.0804  153.7921 F       1  UNL1       -0.1659
     39 F         138.6699  151.6068  152.2668 F       1  UNL1       -0.1659
     40 F         139.6093  151.7390  155.1128 F       1  UNL1       -0.1659
@<TRIPOS>BOND
     1    22    23    2
     2    23    26    1
     3    26    27    1
     4    27    28   am
     5    28    29    2
     6    28    31    1
     7    31    32   ar
     8    32    33   ar
     9    33    34   ar
    10    34    35   ar
    11    35    37    1
    12    37    38    1
    13    37    39    1
    14    37    40    1
    15    35    36   ar
    16    23    24   am
    17    24     1    1
    18     1     2    1
    19     2     3    1
    20     5     3    1
    21     5     6    1
    22     6     7    1
    23     7     8    1
    24     8    11    1
    25    11    12   ar
    26    12    13   ar
    27    13    14   ar
    28    14    17    1
    29    17    18    1
    30    18    19    1
    31    19    20    1
    32    20    21    1
    33    14    15   ar
    34    15    16   ar
    35     8     9    1
    36     9    10    1
    37     3     4    1
    38    36    31   ar
    39     4     1    1
    40    10     5    1
    41    16    11   ar
    42    21    17    1
    43    27    30    1
    44    24    25    1
@<TRIPOS>MOLECULE
*****
 40 44 0 0 0
SMALL
GASTEIGER

@<TRIPOS>ATOM
      1 C         142.9609  136.6867  156.7225 C.3     1  UNL1        0.1035
      2 C         142.7989  138.0945  157.2142 C.3     1  UNL1        0.0933
      3 N         142.8291  137.6032  158.6311 N.3     1  UNL1       -0.2711
      4 C         142.9910  136.1953  158.1394 C.3     1  UNL1        0.0933
      5 C         142.7359  138.2512  159.9806 C.3     1  UNL1        0.0576
      6 C         141.4103  138.3487  160.6758 C.3     1  UNL1        0.0163
      7 C         141.3172  138.9968  162.0255 C.3     1  UNL1        0.0057
      8 C         142.5495  139.5473  162.6798 C.3     1  UNL1        0.0224
      9 C         143.8751  139.4497  161.9846 C.3     1  UNL1        0.0057
     10 C         143.9683  138.8017  160.6350 C.3     1  UNL1        0.0163
     11 C         142.4563  140.1953  164.0294 C.ar    1  UNL1       -0.0224
     12 C         142.3975  141.6899  164.1412 C.ar    1  UNL1       -0.0030
     13 C         142.3043  142.3379  165.4909 C.ar    1  UNL1        0.0142
     14 C         142.2699  141.4913  166.7286 C.ar    1  UNL1        0.0478
     15 C         142.3287  139.9966  166.6167 C.ar    1  UNL1        0.0142
     16 C         142.4219  139.3486  165.2672 C.ar    1  UNL1       -0.0030
     17 N         142.1767  142.1393  168.0782 N.pl3   1  UNL1       -0.3075
     18 C         143.2892  142.2597  169.0771 C.3     1  UNL1        0.0908
     19 C         142.7547  142.9755  170.2821 C.3     1  UNL1        0.0232
     20 C         141.3119  143.2974  170.0279 C.3     1  UNL1        0.0232
     21 C         140.9547  142.7806  168.6657 C.3     1  UNL1        0.0908
     22 O         140.4660  136.1132  155.1583 O.2     1  UNL1       -0.2733
     23 C         141.8066  135.7520  154.5908 C.2     1  UNL1        0.2426
     24 N         143.0541  136.0387  155.3728 N.am    1  UNL1       -0.3018
     25 H         143.9340  135.8016  155.0003 H       1  UNL1        0.1495
     26 C         141.8999  135.1040  153.2412 C.3     1  UNL1        0.1759
     27 N         141.2740  133.7606  153.0094 N.am    1  UNL1       -0.2931
     28 C         141.4703  132.6592  154.0086 C.2     1  UNL1        0.2462
     29 O         142.2924  132.9012  155.2397 O.2     1  UNL1       -0.2701
     30 H         140.7345  133.6017  152.2014 H       1  UNL1        0.1502
     31 C         140.8445  131.3158  153.7767 C.ar    1  UNL1        0.0533
     32 C         140.2589  130.9825  152.4366 C.ar    1  UNL1        0.0045
     33 C         139.6331  129.6391  152.2048 C.ar    1  UNL1        0.0001
     34 C         139.5929  128.6292  153.3132 C.ar    1  UNL1        0.0039
     35 C         140.1785  128.9625  154.6533 C.ar    1  UNL1        0.0716
     36 C         140.8042  130.3059  154.8850 C.ar    1  UNL1        0.0084
     37 C         140.1382  127.9526  155.7616 C.3     1  UNL1        0.4186
     38 F         140.0980  126.9426  156.8699 F       1  UNL1       -0.1659
     39 F         141.5569  128.2860  156.1169 F       1  UNL1       -0.1659
     40 F         138.7196  127.6191  155.4062 F       1  UNL1       -0.1659
@<TRIPOS>BOND
     1    22    23    2
     2    23    26    1
     3    26    27    1
     4    27    28   am
     5    28    29    2
     6    28    31    1
     7    31    32   ar
     8    32    33   ar
     9    33    34   ar
    10    34    35   ar
    11    35    37    1
    12    37    38    1
    13    37    39    1
    14    37    40    1
    15    35    36   ar
    16    23    24   am
    17    24     1    1
    18     1     2    1
    19     2     3    1
    20     5     3    1
    21     5     6    1
    22     6     7    1
    23     7     8    1
    24     8    11    1
    25    11    12   ar
    26    12    13   ar
    27    13    14   ar
    28    14    17    1
    29    17    18    1
    30    18    19    1
    31    19    20    1
    32    20    21    1
    33    14    15   ar
    34    15    16   ar
    35     8     9    1
    36     9    10    1
    37     3     4    1
    38    36    31   ar
    39     4     1    1
    40    10     5    1
    41    16    11   ar
    42    21    17    1
    43    27    30    1
    44    24    25    1
@<TRIPOS>MOLECULE
*****
 40 44 0 0 0
SMALL
GASTEIGER

@<TRIPOS>ATOM
      1 C         142.7523  136.7578  156.8633 C.3     1  UNL1        0.1035
      2 C         142.4962  138.1462  157.3700 C.3     1  UNL1        0.0933
      3 N         142.6908  137.6681  158.7784 N.3     1  UNL1       -0.2711
      4 C         142.9470  136.2797  158.2717 C.3     1  UNL1        0.0933
      5 C         142.6473  138.3117  160.1326 C.3     1  UNL1        0.0576
      6 C         141.3455  138.4209  160.8696 C.3     1  UNL1        0.0163
      7 C         141.3020  139.0645  162.2239 C.3     1  UNL1        0.0057
      8 C         142.5604  139.5990  162.8410 C.3     1  UNL1        0.0224
      9 C         143.8622  139.4898  162.1039 C.3     1  UNL1        0.0057
     10 C         143.9057  138.8462  160.7497 C.3     1  UNL1        0.0163
     11 C         142.5169  140.2426  164.1951 C.ar    1  UNL1       -0.0224
     12 C         142.8991  141.6845  164.3529 C.ar    1  UNL1       -0.0030
     13 C         142.8556  142.3281  165.7071 C.ar    1  UNL1        0.0142
     14 C         142.4298  141.5299  166.9035 C.ar    1  UNL1        0.0478
     15 C         142.0475  140.0880  166.7458 C.ar    1  UNL1        0.0142
     16 C         142.0910  139.4444  165.3916 C.ar    1  UNL1       -0.0030
     17 N         142.3863  142.1735  168.2578 N.pl3   1  UNL1       -0.3075
     18 C         141.1861  142.8105  168.8931 C.3     1  UNL1        0.0908
     19 C         141.5934  143.3238  170.2424 C.3     1  UNL1        0.0232
     20 C         143.0453  143.0039  170.4410 C.3     1  UNL1        0.0232
     21 C         143.5354  142.2930  169.2144 C.3     1  UNL1        0.0908
     22 O         140.2136  136.3313  155.3229 O.2     1  UNL1       -0.2733
     23 C         141.5265  135.9009  154.7389 C.2     1  UNL1        0.2426
     24 N         142.7958  136.1142  155.5090 N.am    1  UNL1       -0.3018
     25 H         143.6575  135.8317  155.1257 H       1  UNL1        0.1495
     26 C         141.5700  135.2574  153.3847 C.3     1  UNL1        0.1759
     27 N         142.3512  133.9933  153.1798 N.am    1  UNL1       -0.2931
     28 C         142.3097  132.9096  154.2161 C.2     1  UNL1        0.2462
     29 O         141.4869  133.0899  155.4573 O.2     1  UNL1       -0.2701
     30 H         142.8912  133.8749  152.3652 H       1  UNL1        0.1502
     31 C         143.0909  131.6455  154.0112 C.ar    1  UNL1        0.0533
     32 C         143.3712  131.1539  152.6220 C.ar    1  UNL1        0.0045
     33 C         144.1523  129.8899  152.4172 C.ar    1  UNL1        0.0001
     34 C         144.6532  129.1175  153.6015 C.ar    1  UNL1        0.0039
     35 C         144.3729  129.6091  154.9906 C.ar    1  UNL1        0.0716
     36 C         143.5918  130.8732  155.1954 C.ar    1  UNL1        0.0084
     37 C         144.8738  128.8367  156.1749 C.3     1  UNL1        0.4186
     38 F         145.3747  128.0644  157.3592 F       1  UNL1       -0.1659
     39 F         145.5383  127.8563  155.2544 F       1  UNL1       -0.1659
     40 F         144.2093  129.8172  157.0953 F       1  UNL1       -0.1659
@<TRIPOS>BOND
     1    22    23    2
     2    23    26    1
     3    26    27    1
     4    27    28   am
     5    28    29    2
     6    28    31    1
     7    31    32   ar
     8    32    33   ar
     9    33    34   ar
    10    34    35   ar
    11    35    37    1
    12    37    38    1
    13    37    39    1
    14    37    40    1
    15    35    36   ar
    16    23    24   am
    17    24     1    1
    18     1     2    1
    19     2     3    1
    20     5     3    1
    21     5     6    1
    22     6     7    1
    23     7     8    1
    24     8    11    1
    25    11    12   ar
    26    12    13   ar
    27    13    14   ar
    28    14    17    1
    29    17    18    1
    30    18    19    1
    31    19    20    1
    32    20    21    1
    33    14    15   ar
    34    15    16   ar
    35     8     9    1
    36     9    10    1
    37     3     4    1
    38    36    31   ar
    39     4     1    1
    40    10     5    1
    41    16    11   ar
    42    21    17    1
    43    27    30    1
    44    24    25    1
@<TRIPOS>MOLECULE
*****
 40 44 0 0 0
SMALL
GASTEIGER

@<TRIPOS>ATOM
      1 C         140.4896  139.6108  157.4156 C.3     1  UNL1        0.1035
      2 C         140.2207  138.1773  157.7659 C.3     1  UNL1        0.0933
      3 N         141.2429  137.7396  156.7591 N.3     1  UNL1       -0.2711
      4 C         141.5117  139.1731  156.4088 C.3     1  UNL1        0.0933
      5 C         141.7755  136.4165  156.2948 C.3     1  UNL1        0.0576
      6 C         142.9748  135.8140  156.9646 C.3     1  UNL1        0.0163
      7 C         143.5075  134.4908  156.5002 C.3     1  UNL1        0.0057
      8 C         142.8408  133.7702  155.3662 C.3     1  UNL1        0.0224
      9 C         141.6414  134.3726  154.6964 C.3     1  UNL1        0.0057
     10 C         141.1088  135.6958  155.1606 C.3     1  UNL1        0.0163
     11 C         143.3734  132.4470  154.9019 C.ar    1  UNL1       -0.0224
     12 C         144.2724  131.6451  155.7956 C.ar    1  UNL1       -0.0030
     13 C         144.8051  130.3219  155.3312 C.ar    1  UNL1        0.0142
     14 C         144.4387  129.8007  153.9733 C.ar    1  UNL1        0.0478
     15 C         143.5397  130.6027  153.0796 C.ar    1  UNL1        0.0142
     16 C         143.0070  131.9258  153.5439 C.ar    1  UNL1       -0.0030
     17 N         144.9713  128.4775  153.5089 N.pl3   1  UNL1       -0.3075
     18 C         144.5883  127.7676  152.2443 C.3     1  UNL1        0.0908
     19 C         145.3607  126.4833  152.1815 C.3     1  UNL1        0.0232
     20 C         146.2212  126.3996  153.4073 C.3     1  UNL1        0.0232
     21 C         145.9805  127.6322  154.2277 C.3     1  UNL1        0.0908
     22 O         140.8748  142.0595  155.7258 O.2     1  UNL1       -0.2733
     23 C         140.1495  142.1583  157.0351 C.2     1  UNL1        0.2426
     24 N         139.9569  140.9340  157.8800 N.am    1  UNL1       -0.3018
     25 H         139.4809  140.9988  158.7393 H       1  UNL1        0.1495
     26 C         139.6168  143.4814  157.4994 C.3     1  UNL1        0.1759
     27 N         139.5786  143.8022  158.9643 N.am    1  UNL1       -0.2931
     28 C         140.8573  144.0102  159.7201 C.2     1  UNL1        0.2462
     29 O         142.1744  143.8975  159.0113 O.2     1  UNL1       -0.2701
     30 H         138.7141  143.8762  159.4295 H       1  UNL1        0.1502
     31 C         140.8190  144.3310  161.1850 C.ar    1  UNL1        0.0533
     32 C         139.5200  144.6990  161.8385 C.ar    1  UNL1        0.0045
     33 C         139.4818  145.0198  163.3032 C.ar    1  UNL1        0.0001
     34 C         140.7426  144.9725  164.1145 C.ar    1  UNL1        0.0039
     35 C         142.0416  144.6045  163.4611 C.ar    1  UNL1        0.0716
     36 C         142.0798  144.2838  161.9963 C.ar    1  UNL1        0.0084
     37 C         143.3024  144.5573  164.2724 C.3     1  UNL1        0.4186
     38 F         144.5631  144.5101  165.0837 F       1  UNL1       -0.1659
     39 F         143.8919  145.6411  163.4192 F       1  UNL1       -0.1659
     40 F         142.7128  143.4735  165.1255 F       1  UNL1       -0.1659
@<TRIPOS>BOND
     1    22    23    2
     2    23    26    1
     3    26    27    1
     4    27    28   am
     5    28    29    2
     6    28    31    1
     7    31    32   ar
     8    32    33   ar
     9    33    34   ar
    10    34    35   ar
    11    35    37    1
    12    37    38    1
    13    37    39    1
    14    37    40    1
    15    35    36   ar
    16    23    24   am
    17    24     1    1
    18     1     2    1
    19     2     3    1
    20     5     3    1
    21     5     6    1
    22     6     7    1
    23     7     8    1
    24     8    11    1
    25    11    12   ar
    26    12    13   ar
    27    13    14   ar
    28    14    17    1
    29    17    18    1
    30    18    19    1
    31    19    20    1
    32    20    21    1
    33    14    15   ar
    34    15    16   ar
    35     8     9    1
    36     9    10    1
    37     3     4    1
    38    36    31   ar
    39     4     1    1
    40    10     5    1
    41    16    11   ar
    42    21    17    1
    43    27    30    1
    44    24    25    1
@<TRIPOS>MOLECULE
*****
 40 44 0 0 0
SMALL
GASTEIGER

@<TRIPOS>ATOM
      1 C         145.7222  142.0107  156.8725 C.3     1  UNL1        0.1035
      2 C         145.9289  142.8210  158.1178 C.3     1  UNL1        0.0933
      3 N         144.8470  142.0415  158.8047 N.3     1  UNL1       -0.2711
      4 C         144.6403  141.2312  157.5594 C.3     1  UNL1        0.0933
      5 C         144.2283  142.0632  160.1709 C.3     1  UNL1        0.0576
      6 C         143.2100  143.1090  160.5165 C.3     1  UNL1        0.0163
      7 C         142.5912  143.1307  161.8828 C.3     1  UNL1        0.0057
      8 C         142.9907  142.1067  162.9034 C.3     1  UNL1        0.0224
      9 C         144.0089  141.0609  162.5578 C.3     1  UNL1        0.0057
     10 C         144.6277  141.0391  161.1916 C.3     1  UNL1        0.0163
     11 C         142.3719  142.1284  164.2696 C.ar    1  UNL1       -0.0224
     12 C         140.8794  142.1600  164.4166 C.ar    1  UNL1       -0.0030
     13 C         140.2607  142.1818  165.7829 C.ar    1  UNL1        0.0142
     14 C         141.1343  142.1719  167.0021 C.ar    1  UNL1        0.0478
     15 C         142.6268  142.1403  166.8551 C.ar    1  UNL1        0.0142
     16 C         143.2456  142.1185  165.4889 C.ar    1  UNL1       -0.0030
     17 N         140.5155  142.1936  168.3684 N.pl3   1  UNL1       -0.3075
     18 C         139.8130  141.0491  169.0365 C.3     1  UNL1        0.0908
     19 C         139.3539  141.5118  170.3874 C.3     1  UNL1        0.0232
     20 C         139.7728  142.9424  170.5543 C.3     1  UNL1        0.0232
     21 C         140.4908  143.3638  169.3064 C.3     1  UNL1        0.0908
     22 O         148.7032  142.1658  156.5733 O.2     1  UNL1       -0.2733
     23 C         147.8315  142.0666  155.3567 C.2     1  UNL1        0.2426
     24 N         146.3410  141.9890  155.5062 N.am    1  UNL1       -0.3018
     25 H         145.7689  141.9238  154.7077 H       1  UNL1        0.1495
     26 C         148.4503  142.0448  153.9905 C.3     1  UNL1        0.1759
     27 N         149.7923  142.6758  153.7648 N.am    1  UNL1       -0.2931
     28 C         151.0435  141.9066  154.0694 C.2     1  UNL1        0.2462
     29 O         150.9527  140.5063  154.5996 O.2     1  UNL1       -0.2701
     30 H         149.8519  143.5948  153.4168 H       1  UNL1        0.1502
     31 C         152.3855  142.5375  153.8437 C.ar    1  UNL1        0.0533
     32 C         153.4352  141.8074  153.0594 C.ar    1  UNL1        0.0045
     33 C         154.7771  142.4384  152.8338 C.ar    1  UNL1        0.0001
     34 C         155.0695  143.7994  153.3925 C.ar    1  UNL1        0.0039
     35 C         154.0198  144.5295  154.1768 C.ar    1  UNL1        0.0716
     36 C         152.6779  143.8985  154.4024 C.ar    1  UNL1        0.0084
     37 C         154.3122  145.8905  154.7355 C.3     1  UNL1        0.4186
     38 F         154.6045  147.2516  155.2942 F       1  UNL1       -0.1659
     39 F         153.5546  145.5415  155.9822 F       1  UNL1       -0.1659
     40 F         155.0697  146.2396  153.4888 F       1  UNL1       -0.1659
@<TRIPOS>BOND
     1    22    23    2
     2    23    26    1
     3    26    27    1
     4    27    28   am
     5    28    29    2
     6    28    31    1
     7    31    32   ar
     8    32    33   ar
     9    33    34   ar
    10    34    35   ar
    11    35    37    1
    12    37    38    1
    13    37    39    1
    14    37    40    1
    15    35    36   ar
    16    23    24   am
    17    24     1    1
    18     1     2    1
    19     2     3    1
    20     5     3    1
    21     5     6    1
    22     6     7    1
    23     7     8    1
    24     8    11    1
    25    11    12   ar
    26    12    13   ar
    27    13    14   ar
    28    14    17    1
    29    17    18    1
    30    18    19    1
    31    19    20    1
    32    20    21    1
    33    14    15   ar
    34    15    16   ar
    35     8     9    1
    36     9    10    1
    37     3     4    1
    38    36    31   ar
    39     4     1    1
    40    10     5    1
    41    16    11   ar
    42    21    17    1
    43    27    30    1
    44    24    25    1
@<TRIPOS>MOLECULE
*****
 40 44 0 0 0
SMALL
GASTEIGER

@<TRIPOS>ATOM
      1 C         145.5035  142.5363  156.8850 C.3     1  UNL1        0.1035
      2 C         144.1616  142.1773  157.4511 C.3     1  UNL1        0.0933
      3 N         144.6595  142.4920  158.8306 N.3     1  UNL1       -0.2711
      4 C         146.0014  142.8509  158.2645 C.3     1  UNL1        0.0933
      5 C         144.0627  142.4606  160.2064 C.3     1  UNL1        0.0576
      6 C         144.5804  141.4905  161.2266 C.3     1  UNL1        0.0163
      7 C         143.9835  141.4592  162.6025 C.3     1  UNL1        0.0057
      8 C         142.8690  142.3980  162.9580 C.3     1  UNL1        0.0224
      9 C         142.3513  143.3682  161.9378 C.3     1  UNL1        0.0057
     10 C         142.9481  143.3995  160.5621 C.3     1  UNL1        0.0163
     11 C         142.2722  142.3667  164.3338 C.ar    1  UNL1       -0.0224
     12 C         142.9130  141.5422  165.4107 C.ar    1  UNL1       -0.0030
     13 C         142.3161  141.5109  166.7866 C.ar    1  UNL1        0.0142
     14 C         141.0786  142.3041  167.0854 C.ar    1  UNL1        0.0478
     15 C         140.4379  143.1286  166.0086 C.ar    1  UNL1        0.0142
     16 C         141.0346  143.1599  164.6328 C.ar    1  UNL1       -0.0030
     17 N         140.4817  142.2728  168.4613 N.pl3   1  UNL1       -0.3075
     18 C         140.4252  143.4215  169.4242 C.3     1  UNL1        0.0908
     19 C         139.7452  142.9459  170.6737 C.3     1  UNL1        0.0232
     20 C         139.3814  141.5033  170.4830 C.3     1  UNL1        0.0232
     21 C         139.8367  141.0873  169.1156 C.3     1  UNL1        0.0908
     22 O         145.6772  140.0156  155.2675 O.2     1  UNL1       -0.2733
     23 C         146.1871  141.3073  154.7004 C.2     1  UNL1        0.2426
     24 N         146.1003  142.5676  155.5091 N.am    1  UNL1       -0.3018
     25 H         146.4350  143.4153  155.1369 H       1  UNL1        0.1495
     26 C         146.7838  141.3386  153.3246 C.3     1  UNL1        0.1759
     27 N         148.2731  141.3946  153.1541 N.am    1  UNL1       -0.2931
     28 C         148.9963  142.7005  153.3012 C.2     1  UNL1        0.2462
     29 O         148.2303  143.9504  153.6188 O.2     1  UNL1       -0.2701
     30 H         148.7759  140.5742  152.9457 H       1  UNL1        0.1502
     31 C         150.4856  142.7564  153.1307 C.ar    1  UNL1        0.0533
     32 C         151.1869  144.0818  153.0937 C.ar    1  UNL1        0.0045
     33 C         152.6761  144.1378  152.9232 C.ar    1  UNL1        0.0001
     34 C         153.4640  142.8683  152.7898 C.ar    1  UNL1        0.0039
     35 C         152.7626  141.5429  152.8269 C.ar    1  UNL1        0.0716
     36 C         151.2734  141.4870  152.9973 C.ar    1  UNL1        0.0084
     37 C         153.5505  140.2735  152.6934 C.3     1  UNL1        0.4186
     38 F         154.3383  139.0040  152.5600 F       1  UNL1       -0.1659
     39 F         152.4378  139.5137  153.3527 F       1  UNL1       -0.1659
     40 F         154.6631  141.0333  152.0341 F       1  UNL1       -0.1659
@<TRIPOS>BOND
     1    22    23    2
     2    23    26    1
     3    26    27    1
     4    27    28   am
     5    28    29    2
     6    28    31    1
     7    31    32   ar
     8    32    33   ar
     9    33    34   ar
    10    34    35   ar
    11    35    37    1
    12    37    38    1
    13    37    39    1
    14    37    40    1
    15    35    36   ar
    16    23    24   am
    17    24     1    1
    18     1     2    1
    19     2     3    1
    20     5     3    1
    21     5     6    1
    22     6     7    1
    23     7     8    1
    24     8    11    1
    25    11    12   ar
    26    12    13   ar
    27    13    14   ar
    28    14    17    1
    29    17    18    1
    30    18    19    1
    31    19    20    1
    32    20    21    1
    33    14    15   ar
    34    15    16   ar
    35     8     9    1
    36     9    10    1
    37     3     4    1
    38    36    31   ar
    39     4     1    1
    40    10     5    1
    41    16    11   ar
    42    21    17    1
    43    27    30    1
    44    24    25    1
