@<TRIPOS>MOLECULE
*****
 34 36 0 0 0
SMALL
GASTEIGER

@<TRIPOS>ATOM
      1 C         139.3977  139.9067  164.0757 C.3     1  UNL1        0.0991
      2 C         141.6142  140.1563  167.9840 C.ar    1  UNL1        0.1162
      3 C         142.3727  140.1616  166.6899 C.ar    1  UNL1        0.0189
      4 C         141.6339  140.0784  165.3872 C.ar    1  UNL1       -0.0024
      5 C         140.1366  139.9899  165.3785 C.ar    1  UNL1       -0.0129
      6 C         139.3781  139.9847  166.6725 C.ar    1  UNL1        0.0089
      7 C         140.1169  140.0679  167.9753 C.ar    1  UNL1        0.0744
      8 CL        139.3583  140.0626  169.2694 Cl      1  UNL1       -0.0809
      9 C         143.0919  140.3227  170.5895 C.3     1  UNL1        0.1816
     10 S         142.3531  140.2395  169.2868 S.O2    1  UNL1        0.0113
     11 O         142.6609  138.7737  169.2058 O.2     1  UNL1       -0.1685
     12 O         142.0453  141.7054  169.3677 O.2     1  UNL1       -0.1685
     13 C         139.9888  139.1468  162.9255 C.2     1  UNL1        0.2308
     14 O         139.9882  137.6468  162.9381 O.2     1  UNL1       -0.2744
     15 N         140.5804  139.8868  161.7626 N.am    1  UNL1       -0.2678
     16 H         140.5808  140.8712  161.7542 H       1  UNL1        0.1563
     17 C         141.1715  139.1267  160.6123 C.ar    1  UNL1        0.1535
     18 C         140.5405  139.2113  159.2541 C.ar    1  UNL1        0.1329
     19 N         141.1315  138.4513  158.1039 N.ar    1  UNL1       -0.2412
     20 C         142.3536  137.6067  158.3118 C.ar    1  UNL1        0.1074
     21 C         142.9847  137.5222  159.6699 C.ar    1  UNL1        0.1175
     22 N         142.3936  138.2822  160.8202 N.ar    1  UNL1       -0.2261
     23 C         142.9446  136.8468  157.1615 C.3     1  UNL1        0.1811
     24 O         142.9914  135.3480  157.1979 O.3     1  UNL1       -0.3762
     25 H         142.6019  135.0324  158.0283 H       1  UNL1        0.2109
     26 C         143.4888  137.5856  155.9750 C.3     1  UNL1        0.1726
     27 O         144.8221  137.2060  155.4020 O.3     1  UNL1       -0.3792
     28 H         145.5189  137.4008  156.0480 H       1  UNL1        0.2106
     29 C         138.0678  140.5835  163.9232 C.3     1  UNL1        0.0135
     30 C         137.9936  142.0786  163.8279 C.3     1  UNL1        0.0008
     31 C         138.1941  143.0451  164.9573 C.3     1  UNL1        0.0000
     32 C         138.0303  144.4336  164.4139 C.3     1  UNL1        0.0000
     33 C         137.7286  144.3252  162.9486 C.3     1  UNL1        0.0000
     34 C         137.7059  142.8698  162.5863 C.3     1  UNL1        0.0000
@<TRIPOS>BOND
     1     9    10    1
     2    10    11    2
     3    10    12    2
     4    10     2    1
     5     2     3   ar
     6     3     4   ar
     7     4     5   ar
     8     5     1    1
     9     1    29    1
    10    29    30    1
    11    30    31    1
    12    31    32    1
    13    32    33    1
    14    33    34    1
    15     1    13    1
    16    13    14    2
    17    13    15   am
    18    15    17    1
    19    17    18   ar
    20    18    19   ar
    21    19    20   ar
    22    20    23    1
    23    23    24    1
    24    23    26    1
    25    26    27    1
    26    20    21   ar
    27    21    22   ar
    28     5     6   ar
    29     6     7   ar
    30     7     8    1
    31     7     2   ar
    32    34    30    1
    33    22    17   ar
    34    15    16    1
    35    24    25    1
    36    27    28    1
@<TRIPOS>MOLECULE
*****
 34 36 0 0 0
SMALL
GASTEIGER

@<TRIPOS>ATOM
      1 C         139.3058  139.8686  163.1761 C.3     1  UNL1        0.0991
      2 C         141.5027  140.1748  167.0915 C.ar    1  UNL1        0.1162
      3 C         140.1907  139.4509  167.0222 C.ar    1  UNL1        0.0189
      4 C         139.4584  139.3489  165.7171 C.ar    1  UNL1       -0.0024
      5 C         140.0381  139.9707  164.4813 C.ar    1  UNL1       -0.0129
      6 C         141.3500  140.6945  164.5505 C.ar    1  UNL1        0.0089
      7 C         142.0823  140.7965  165.8557 C.ar    1  UNL1        0.0744
      8 CL        143.3943  141.5204  165.9249 Cl      1  UNL1       -0.0809
      9 C         142.9672  140.3788  169.7017 C.3     1  UNL1        0.1816
     10 S         142.2349  140.2768  168.3966 S.O2    1  UNL1        0.0113
     11 O         142.9804  139.0150  168.0770 O.2     1  UNL1       -0.1685
     12 O         141.4895  141.5386  168.7163 O.2     1  UNL1       -0.1685
     13 C         139.8810  139.0549  162.0550 C.2     1  UNL1        0.2308
     14 O         140.0153  137.5679  162.1997 O.2     1  UNL1       -0.2744
     15 N         140.3219  139.7281  160.7892 N.am    1  UNL1       -0.2678
     16 H         140.2338  140.7041  160.6942 H       1  UNL1        0.1563
     17 C         140.8972  138.9143  159.6680 C.ar    1  UNL1        0.1535
     18 C         142.3522  138.5497  159.6758 C.ar    1  UNL1        0.1329
     19 N         142.9274  137.7359  158.5547 N.ar    1  UNL1       -0.2412
     20 C         142.0477  137.2868  157.4258 C.ar    1  UNL1        0.1074
     21 C         140.5927  137.6515  157.4180 C.ar    1  UNL1        0.1175
     22 N         140.0174  138.4653  158.5392 N.ar    1  UNL1       -0.2261
     23 C         142.6229  136.4730  156.3047 C.3     1  UNL1        0.1811
     24 O         142.1663  135.0601  156.0926 O.3     1  UNL1       -0.3762
     25 H         141.5022  134.8311  156.7615 H       1  UNL1        0.2109
     26 C         143.6548  137.0722  155.3958 C.3     1  UNL1        0.1726
     27 O         144.9422  136.3460  155.1409 O.3     1  UNL1       -0.3792
     28 H         145.4561  136.3009  155.9624 H       1  UNL1        0.2106
     29 C         137.9983  140.5803  162.9922 C.3     1  UNL1        0.0135
     30 C         137.8983  142.0502  163.2739 C.3     1  UNL1        0.0008
     31 C         137.7403  142.6801  164.6260 C.3     1  UNL1        0.0000
     32 C         137.6831  144.1675  164.4408 C.3     1  UNL1        0.0000
     33 C         137.8057  144.4569  162.9741 C.3     1  UNL1        0.0000
     34 C         137.9387  143.1484  162.2528 C.3     1  UNL1        0.0000
@<TRIPOS>BOND
     1     9    10    1
     2    10    11    2
     3    10    12    2
     4    10     2    1
     5     2     3   ar
     6     3     4   ar
     7     4     5   ar
     8     5     1    1
     9     1    29    1
    10    29    30    1
    11    30    31    1
    12    31    32    1
    13    32    33    1
    14    33    34    1
    15     1    13    1
    16    13    14    2
    17    13    15   am
    18    15    17    1
    19    17    18   ar
    20    18    19   ar
    21    19    20   ar
    22    20    23    1
    23    23    24    1
    24    23    26    1
    25    26    27    1
    26    20    21   ar
    27    21    22   ar
    28     5     6   ar
    29     6     7   ar
    30     7     8    1
    31     7     2   ar
    32    34    30    1
    33    22    17   ar
    34    15    16    1
    35    24    25    1
    36    27    28    1
@<TRIPOS>MOLECULE
*****
 34 36 0 0 0
SMALL
GASTEIGER

@<TRIPOS>ATOM
      1 C         139.7151  141.3647  163.9777 C.3     1  UNL1        0.0991
      2 C         142.1803  141.7033  167.7271 C.ar    1  UNL1        0.1162
      3 C         142.6388  140.8194  166.6054 C.ar    1  UNL1        0.0189
      4 C         141.8171  140.7065  165.3556 C.ar    1  UNL1       -0.0024
      5 C         140.5369  141.4775  165.2275 C.ar    1  UNL1       -0.0129
      6 C         140.0784  142.3615  166.3493 C.ar    1  UNL1        0.0089
      7 C         140.9001  142.4743  167.5991 C.ar    1  UNL1        0.0744
      8 CL        140.4415  143.3583  168.7209 Cl      1  UNL1       -0.0809
      9 C         143.8238  141.9291  170.2267 C.3     1  UNL1        0.1816
     10 S         143.0021  141.8162  168.9769 S.O2    1  UNL1        0.0113
     11 O         142.1482  140.7717  169.6327 O.2     1  UNL1       -0.1685
     12 O         143.8560  142.8606  168.3212 O.2     1  UNL1       -0.1685
     13 C         140.1401  142.0858  162.7331 C.2     1  UNL1        0.2308
     14 O         141.4944  141.8277  162.1420 O.2     1  UNL1       -0.2744
     15 N         139.2107  143.0651  162.0793 N.am    1  UNL1       -0.2678
     16 H         138.3219  143.2345  162.4672 H       1  UNL1        0.1563
     17 C         139.6358  143.7863  160.8346 C.ar    1  UNL1        0.1535
     18 C         140.5131  144.9989  160.9329 C.ar    1  UNL1        0.1329
     19 N         140.9381  145.7201  159.6883 N.ar    1  UNL1       -0.2412
     20 C         140.4858  145.2286  158.3452 C.ar    1  UNL1        0.1074
     21 C         139.6084  144.0160  158.2468 C.ar    1  UNL1        0.1175
     22 N         139.1834  143.2948  159.4915 N.ar    1  UNL1       -0.2261
     23 C         140.9108  145.9498  157.1005 C.3     1  UNL1        0.1811
     24 O         140.1246  147.1302  156.6122 O.3     1  UNL1       -0.3762
     25 H         139.3791  147.2924  157.2112 H       1  UNL1        0.2109
     26 C         142.1221  145.4906  156.3442 C.3     1  UNL1        0.1726
     27 O         143.0150  144.4358  156.9272 O.3     1  UNL1       -0.3792
     28 H         143.4436  144.7804  157.7262 H       1  UNL1        0.2106
     29 C         138.4684  140.5306  163.9726 C.3     1  UNL1        0.0135
     30 C         138.3641  139.3321  164.8686 C.3     1  UNL1        0.0008
     31 C         137.8196  139.3208  166.2662 C.3     1  UNL1        0.0000
     32 C         137.9050  137.9162  166.7857 C.3     1  UNL1        0.0000
     33 C         138.5023  137.0594  165.7091 C.3     1  UNL1        0.0000
     34 C         138.7861  137.9344  164.5242 C.3     1  UNL1        0.0000
@<TRIPOS>BOND
     1     9    10    1
     2    10    11    2
     3    10    12    2
     4    10     2    1
     5     2     3   ar
     6     3     4   ar
     7     4     5   ar
     8     5     1    1
     9     1    29    1
    10    29    30    1
    11    30    31    1
    12    31    32    1
    13    32    33    1
    14    33    34    1
    15     1    13    1
    16    13    14    2
    17    13    15   am
    18    15    17    1
    19    17    18   ar
    20    18    19   ar
    21    19    20   ar
    22    20    23    1
    23    23    24    1
    24    23    26    1
    25    26    27    1
    26    20    21   ar
    27    21    22   ar
    28     5     6   ar
    29     6     7   ar
    30     7     8    1
    31     7     2   ar
    32    34    30    1
    33    22    17   ar
    34    15    16    1
    35    24    25    1
    36    27    28    1
@<TRIPOS>MOLECULE
*****
 34 36 0 0 0
SMALL
GASTEIGER

@<TRIPOS>ATOM
      1 C         140.6390  140.5551  163.6521 C.3     1  UNL1        0.0991
      2 C         141.8497  141.8428  167.7905 C.ar    1  UNL1        0.1162
      3 C         141.1323  142.8010  166.8867 C.ar    1  UNL1        0.0189
      4 C         140.7287  142.3718  165.5072 C.ar    1  UNL1       -0.0024
      5 C         141.0426  140.9843  165.0316 C.ar    1  UNL1       -0.0129
      6 C         141.7601  140.0261  165.9354 C.ar    1  UNL1        0.0089
      7 C         142.1636  140.4553  167.3148 C.ar    1  UNL1        0.0744
      8 CL        142.8812  139.4969  168.2186 Cl      1  UNL1       -0.0809
      9 C         142.6569  142.7013  170.5494 C.3     1  UNL1        0.1816
     10 S         142.2533  142.2720  169.1699 S.O2    1  UNL1        0.0113
     11 O         140.9053  141.8689  169.6897 O.2     1  UNL1       -0.1685
     12 O         143.6014  142.6751  168.6501 O.2     1  UNL1       -0.1685
     13 C         141.3853  141.0711  162.4577 C.2     1  UNL1        0.2308
     14 O         140.7661  142.1200  161.5821 O.2     1  UNL1       -0.2744
     15 N         142.7507  140.5383  162.1387 N.am    1  UNL1       -0.2678
     16 H         143.1570  139.8499  162.7133 H       1  UNL1        0.1563
     17 C         143.4969  141.0544  160.9442 C.ar    1  UNL1        0.1535
     18 C         144.3575  142.2767  161.0681 C.ar    1  UNL1        0.1329
     19 N         145.1037  142.7928  159.8737 N.ar    1  UNL1       -0.2412
     20 C         144.9895  142.0866  158.5552 C.ar    1  UNL1        0.1074
     21 C         144.1289  140.8642  158.4313 C.ar    1  UNL1        0.1175
     22 N         143.3827  140.3481  159.6258 N.ar    1  UNL1       -0.2261
     23 C         145.7357  142.6027  157.3608 C.3     1  UNL1        0.1811
     24 O         145.0069  142.8620  156.0757 O.3     1  UNL1       -0.3762
     25 H         144.0678  142.6459  156.1873 H       1  UNL1        0.2109
     26 C         147.2108  142.8594  157.4514 C.3     1  UNL1        0.1726
     27 O         147.8096  143.3469  158.7374 O.3     1  UNL1       -0.3792
     28 H         147.4776  144.2374  158.9315 H       1  UNL1        0.2106
     29 C         139.4891  139.6098  163.4671 C.3     1  UNL1        0.0135
     30 C         138.8794  138.9286  164.6563 C.3     1  UNL1        0.0008
     31 C         138.1040  139.5961  165.7532 C.3     1  UNL1        0.0000
     32 C         137.6834  138.5404  166.7323 C.3     1  UNL1        0.0000
     33 C         138.1988  137.2204  166.2404 C.3     1  UNL1        0.0000
     34 C         138.9380  137.4603  164.9574 C.3     1  UNL1        0.0000
@<TRIPOS>BOND
     1     9    10    1
     2    10    11    2
     3    10    12    2
     4    10     2    1
     5     2     3   ar
     6     3     4   ar
     7     4     5   ar
     8     5     1    1
     9     1    29    1
    10    29    30    1
    11    30    31    1
    12    31    32    1
    13    32    33    1
    14    33    34    1
    15     1    13    1
    16    13    14    2
    17    13    15   am
    18    15    17    1
    19    17    18   ar
    20    18    19   ar
    21    19    20   ar
    22    20    23    1
    23    23    24    1
    24    23    26    1
    25    26    27    1
    26    20    21   ar
    27    21    22   ar
    28     5     6   ar
    29     6     7   ar
    30     7     8    1
    31     7     2   ar
    32    34    30    1
    33    22    17   ar
    34    15    16    1
    35    24    25    1
    36    27    28    1
@<TRIPOS>MOLECULE
*****
 34 36 0 0 0
SMALL
GASTEIGER

@<TRIPOS>ATOM
      1 C         142.2190  143.3262  163.9017 C.3     1  UNL1        0.0991
      2 C         142.2959  140.7753  167.6081 C.ar    1  UNL1        0.1162
      3 C         143.3477  141.8237  167.3972 C.ar    1  UNL1        0.0189
      4 C         143.3220  142.6740  166.1617 C.ar    1  UNL1       -0.0024
      5 C         142.2446  142.4759  165.1372 C.ar    1  UNL1       -0.0129
      6 C         141.1928  141.4275  165.3480 C.ar    1  UNL1        0.0089
      7 C         141.2184  140.5772  166.5835 C.ar    1  UNL1        0.0744
      8 CL        140.1665  139.5287  166.7943 Cl      1  UNL1       -0.0809
      9 C         142.3471  139.0747  170.0789 C.3     1  UNL1        0.1816
     10 S         142.3215  139.9250  168.8435 S.O2    1  UNL1        0.0113
     11 O         143.1474  138.9016  168.1220 O.2     1  UNL1       -0.1685
     12 O         141.4956  140.9484  169.5650 O.2     1  UNL1       -0.1685
     13 C         142.9956  142.9093  162.6881 C.2     1  UNL1        0.2308
     14 O         144.4949  142.8846  162.7290 O.2     1  UNL1       -0.2744
     15 N         142.2730  142.5171  161.4334 N.am    1  UNL1       -0.2678
     16 H         141.2890  142.5333  161.4065 H       1  UNL1        0.1563
     17 C         143.0498  142.1002  160.2198 C.ar    1  UNL1        0.1535
     18 C         143.4779  143.1274  159.2139 C.ar    1  UNL1        0.1329
     19 N         144.2546  142.7105  158.0003 N.ar    1  UNL1       -0.2412
     20 C         144.6032  141.2664  157.7924 C.ar    1  UNL1        0.1074
     21 C         144.1751  140.2392  158.7982 C.ar    1  UNL1        0.1175
     22 N         143.3984  140.6562  160.0119 N.ar    1  UNL1       -0.2261
     23 C         145.3799  140.8496  156.5788 C.3     1  UNL1        0.1811
     24 O         145.0703  139.5478  155.9009 O.3     1  UNL1       -0.3762
     25 H         144.3479  139.1025  156.3706 H       1  UNL1        0.2109
     26 C         146.4661  141.7345  156.0430 C.3     1  UNL1        0.1726
     27 O         146.7502  143.0536  156.6981 O.3     1  UNL1       -0.3792
     28 H         145.9886  143.6430  156.5818 H       1  UNL1        0.2106
     29 C         141.4167  144.5934  163.8799 C.3     1  UNL1        0.0135
     30 C         139.9202  144.5351  163.9636 C.3     1  UNL1        0.0008
     31 C         139.1033  144.6205  165.2188 C.3     1  UNL1        0.0000
     32 C         137.6560  144.5194  164.8378 C.3     1  UNL1        0.0000
     33 C         137.5784  144.3716  163.3472 C.3     1  UNL1        0.0000
     34 C         138.9777  144.3813  162.8068 C.3     1  UNL1        0.0000
@<TRIPOS>BOND
     1     9    10    1
     2    10    11    2
     3    10    12    2
     4    10     2    1
     5     2     3   ar
     6     3     4   ar
     7     4     5   ar
     8     5     1    1
     9     1    29    1
    10    29    30    1
    11    30    31    1
    12    31    32    1
    13    32    33    1
    14    33    34    1
    15     1    13    1
    16    13    14    2
    17    13    15   am
    18    15    17    1
    19    17    18   ar
    20    18    19   ar
    21    19    20   ar
    22    20    23    1
    23    23    24    1
    24    23    26    1
    25    26    27    1
    26    20    21   ar
    27    21    22   ar
    28     5     6   ar
    29     6     7   ar
    30     7     8    1
    31     7     2   ar
    32    34    30    1
    33    22    17   ar
    34    15    16    1
    35    24    25    1
    36    27    28    1
@<TRIPOS>MOLECULE
*****
 34 36 0 0 0
SMALL
GASTEIGER

@<TRIPOS>ATOM
      1 C         142.2869  143.0197  163.5582 C.3     1  UNL1        0.0991
      2 C         142.2826  140.5341  167.3095 C.ar    1  UNL1        0.1162
      3 C         141.6282  140.0137  166.0642 C.ar    1  UNL1        0.0189
      4 C         141.6296  140.8422  164.8138 C.ar    1  UNL1       -0.0024
      5 C         142.2855  142.1912  164.8086 C.ar    1  UNL1       -0.0129
      6 C         142.9399  142.7117  166.0540 C.ar    1  UNL1        0.0089
      7 C         142.9385  141.8831  167.3044 C.ar    1  UNL1        0.0744
      8 CL        143.5929  142.4036  168.5497 Cl      1  UNL1       -0.0809
      9 C         142.2797  138.8771  169.8103 C.3     1  UNL1        0.1816
     10 S         142.2812  139.7056  168.5599 S.O2    1  UNL1        0.0113
     11 O         141.1932  140.5670  169.1294 O.2     1  UNL1       -0.1685
     12 O         143.3691  138.8442  167.9903 O.2     1  UNL1       -0.1685
     13 C         143.0792  142.5750  162.3648 C.2     1  UNL1        0.2308
     14 O         144.5478  142.3006  162.4993 O.2     1  UNL1       -0.2744
     15 N         142.4031  142.4047  161.0367 N.am    1  UNL1       -0.2678
     16 H         141.4392  142.5849  160.9483 H       1  UNL1        0.1563
     17 C         143.1955  141.9600  159.8432 C.ar    1  UNL1        0.1535
     18 C         143.3023  140.5001  159.5155 C.ar    1  UNL1        0.1329
     19 N         144.0946  140.0554  158.3221 N.ar    1  UNL1       -0.2412
     20 C         144.7802  141.0705  157.4563 C.ar    1  UNL1        0.1074
     21 C         144.6734  142.5304  157.7839 C.ar    1  UNL1        0.1175
     22 N         143.8810  142.9751  158.9774 N.ar    1  UNL1       -0.2261
     23 C         145.5726  140.6257  156.2628 C.3     1  UNL1        0.1811
     24 O         145.7159  139.1636  155.9603 O.3     1  UNL1       -0.3762
     25 H         145.2394  138.6469  156.6287 H       1  UNL1        0.2109
     26 C         146.2216  141.6431  155.3719 C.3     1  UNL1        0.1726
     27 O         145.9339  141.6434  153.8998 O.3     1  UNL1       -0.3792
     28 H         146.2849  140.8315  153.5016 H       1  UNL1        0.2106
     29 C         141.4960  144.2930  163.5013 C.3     1  UNL1        0.0135
     30 C         140.0097  144.2622  163.7009 C.3     1  UNL1        0.0008
     31 C         138.9772  144.1412  162.6196 C.3     1  UNL1        0.0000
     32 C         137.6242  144.1513  163.2672 C.3     1  UNL1        0.0000
     33 C         137.8206  144.2786  164.7489 C.3     1  UNL1        0.0000
     34 C         139.2949  144.3472  165.0170 C.3     1  UNL1        0.0000
@<TRIPOS>BOND
     1     9    10    1
     2    10    11    2
     3    10    12    2
     4    10     2    1
     5     2     3   ar
     6     3     4   ar
     7     4     5   ar
     8     5     1    1
     9     1    29    1
    10    29    30    1
    11    30    31    1
    12    31    32    1
    13    32    33    1
    14    33    34    1
    15     1    13    1
    16    13    14    2
    17    13    15   am
    18    15    17    1
    19    17    18   ar
    20    18    19   ar
    21    19    20   ar
    22    20    23    1
    23    23    24    1
    24    23    26    1
    25    26    27    1
    26    20    21   ar
    27    21    22   ar
    28     5     6   ar
    29     6     7   ar
    30     7     8    1
    31     7     2   ar
    32    34    30    1
    33    22    17   ar
    34    15    16    1
    35    24    25    1
    36    27    28    1
@<TRIPOS>MOLECULE
*****
 34 36 0 0 0
SMALL
GASTEIGER

@<TRIPOS>ATOM
      1 C         142.0221  139.6158  163.8327 C.3     1  UNL1        0.0991
      2 C         142.3846  141.6935  167.8078 C.ar    1  UNL1        0.1162
      3 C         142.1623  142.4955  166.5599 C.ar    1  UNL1        0.0189
      4 C         142.0414  141.8029  165.2349 C.ar    1  UNL1       -0.0024
      5 C         142.1429  140.3084  165.1577 C.ar    1  UNL1       -0.0129
      6 C         142.3652  139.5064  166.4057 C.ar    1  UNL1        0.0089
      7 C         142.4861  140.1990  167.7307 C.ar    1  UNL1        0.0744
      8 CL        142.7084  139.3969  168.9787 Cl      1  UNL1       -0.0809
      9 C         142.6262  143.0786  170.4579 C.3     1  UNL1        0.1816
     10 S         142.5054  142.3861  169.1329 S.O2    1  UNL1        0.0113
     11 O         143.9545  142.6591  168.8580 O.2     1  UNL1       -0.1685
     12 O         141.0563  142.1130  169.4077 O.2     1  UNL1       -0.1685
     13 C         142.9167  140.0111  162.6955 C.2     1  UNL1        0.2308
     14 O         144.4066  139.9806  162.8676 O.2     1  UNL1       -0.2744
     15 N         142.3216  140.4370  161.3861 N.am    1  UNL1       -0.2678
     16 H         141.3438  140.4571  161.2731 H       1  UNL1        0.1563
     17 C         143.2163  140.8323  160.2488 C.ar    1  UNL1        0.1535
     18 C         143.7761  139.7827  159.3351 C.ar    1  UNL1        0.1329
     19 N         144.6708  140.1779  158.1979 N.ar    1  UNL1       -0.2412
     20 C         145.0057  141.6229  157.9744 C.ar    1  UNL1        0.1074
     21 C         144.4460  142.6726  158.8881 C.ar    1  UNL1        0.1175
     22 N         143.5512  142.2773  160.0253 N.ar    1  UNL1       -0.2261
     23 C         145.9004  142.0182  156.8372 C.3     1  UNL1        0.1811
     24 O         146.7811  143.2261  156.9607 O.3     1  UNL1       -0.3762
     25 H         146.6510  143.6334  157.8313 H       1  UNL1        0.2109
     26 C         145.9144  141.2055  155.5765 C.3     1  UNL1        0.1726
     27 O         145.8300  139.7096  155.6475 O.3     1  UNL1       -0.3792
     28 H         146.6280  139.3606  156.0744 H       1  UNL1        0.2106
     29 C         141.0066  138.5280  163.6449 C.3     1  UNL1        0.0135
     30 C         139.6900  138.8350  162.9950 C.3     1  UNL1        0.0008
     31 C         138.8526  137.8751  162.2029 C.3     1  UNL1        0.0000
     32 C         137.6247  138.6027  161.7416 C.3     1  UNL1        0.0000
     33 C         137.7032  140.0123  162.2485 C.3     1  UNL1        0.0000
     34 C         138.9796  140.1559  163.0232 C.3     1  UNL1        0.0000
@<TRIPOS>BOND
     1     9    10    1
     2    10    11    2
     3    10    12    2
     4    10     2    1
     5     2     3   ar
     6     3     4   ar
     7     4     5   ar
     8     5     1    1
     9     1    29    1
    10    29    30    1
    11    30    31    1
    12    31    32    1
    13    32    33    1
    14    33    34    1
    15     1    13    1
    16    13    14    2
    17    13    15   am
    18    15    17    1
    19    17    18   ar
    20    18    19   ar
    21    19    20   ar
    22    20    23    1
    23    23    24    1
    24    23    26    1
    25    26    27    1
    26    20    21   ar
    27    21    22   ar
    28     5     6   ar
    29     6     7   ar
    30     7     8    1
    31     7     2   ar
    32    34    30    1
    33    22    17   ar
    34    15    16    1
    35    24    25    1
    36    27    28    1
@<TRIPOS>MOLECULE
*****
 34 36 0 0 0
SMALL
GASTEIGER

@<TRIPOS>ATOM
      1 C         139.6907  140.0382  162.4382 C.3     1  UNL1        0.0991
      2 C         141.5982  140.4808  166.4898 C.ar    1  UNL1        0.1162
      3 C         142.3812  140.8066  165.2526 C.ar    1  UNL1        0.0189
      4 C         141.7454  140.6590  163.9020 C.ar    1  UNL1       -0.0024
      5 C         140.3266  140.1857  163.7887 C.ar    1  UNL1       -0.0129
      6 C         139.5436  139.8600  165.0259 C.ar    1  UNL1        0.0089
      7 C         140.1794  140.0075  166.3765 C.ar    1  UNL1        0.0744
      8 CL        139.3963  139.6817  167.6137 Cl      1  UNL1       -0.0809
      9 C         142.8698  140.7759  169.1909 C.3     1  UNL1        0.1816
     10 S         142.2340  140.6284  167.8403 S.O2    1  UNL1        0.0113
     11 O         141.7431  142.0437  167.9168 O.2     1  UNL1       -0.1685
     12 O         142.7249  139.2131  167.7638 O.2     1  UNL1       -0.1685
     13 C         140.2459  139.0544  161.4513 C.2     1  UNL1        0.2308
     14 O         140.2369  137.5882  161.7679 O.2     1  UNL1       -0.2744
     15 N         140.8100  139.5367  160.1478 N.am    1  UNL1       -0.2678
     16 H         140.8159  140.4990  159.9400 H       1  UNL1        0.1563
     17 C         141.3652  138.5529  159.1609 C.ar    1  UNL1        0.1535
     18 C         142.6683  137.8645  159.4403 C.ar    1  UNL1        0.1329
     19 N         143.2234  136.8806  158.4535 N.ar    1  UNL1       -0.2412
     20 C         142.4755  136.5852  157.1872 C.ar    1  UNL1        0.1074
     21 C         141.1724  137.2736  156.9078 C.ar    1  UNL1        0.1175
     22 N         140.6172  138.2574  157.8947 N.ar    1  UNL1       -0.2261
     23 C         143.0306  135.6013  156.2004 C.3     1  UNL1        0.1811
     24 O         143.5946  136.0837  154.8969 O.3     1  UNL1       -0.3762
     25 H         143.5239  137.0500  154.8518 H       1  UNL1        0.2109
     26 C         143.0218  134.1352  156.5171 C.3     1  UNL1        0.1726
     27 O         143.1140  133.6751  157.9418 O.3     1  UNL1       -0.3792
     28 H         143.9820  133.9139  158.3031 H       1  UNL1        0.2106
     29 C         138.4998  140.8744  162.0745 C.3     1  UNL1        0.0135
     30 C         138.3760  142.2730  162.6023 C.3     1  UNL1        0.0008
     31 C         137.6555  142.6831  163.8523 C.3     1  UNL1        0.0000
     32 C         137.7852  144.1707  163.9953 C.3     1  UNL1        0.0000
     33 C         138.5860  144.6799  162.8336 C.3     1  UNL1        0.0000
     34 C         138.9511  143.5071  161.9726 C.3     1  UNL1        0.0000
@<TRIPOS>BOND
     1     9    10    1
     2    10    11    2
     3    10    12    2
     4    10     2    1
     5     2     3   ar
     6     3     4   ar
     7     4     5   ar
     8     5     1    1
     9     1    29    1
    10    29    30    1
    11    30    31    1
    12    31    32    1
    13    32    33    1
    14    33    34    1
    15     1    13    1
    16    13    14    2
    17    13    15   am
    18    15    17    1
    19    17    18   ar
    20    18    19   ar
    21    19    20   ar
    22    20    23    1
    23    23    24    1
    24    23    26    1
    25    26    27    1
    26    20    21   ar
    27    21    22   ar
    28     5     6   ar
    29     6     7   ar
    30     7     8    1
    31     7     2   ar
    32    34    30    1
    33    22    17   ar
    34    15    16    1
    35    24    25    1
    36    27    28    1
@<TRIPOS>MOLECULE
*****
 34 36 0 0 0
SMALL
GASTEIGER

@<TRIPOS>ATOM
      1 C         140.9413  141.8611  162.2587 C.3     1  UNL1        0.0991
      2 C         141.9847  139.2114  158.7744 C.ar    1  UNL1        0.1162
      3 C         141.2399  140.4931  158.5453 C.ar    1  UNL1        0.0189
      4 C         140.8921  141.3763  159.7067 C.ar    1  UNL1       -0.0024
      5 C         141.2891  140.9778  161.0972 C.ar    1  UNL1       -0.0129
      6 C         142.0339  139.6961  161.3263 C.ar    1  UNL1        0.0089
      7 C         142.3817  138.8129  160.1649 C.ar    1  UNL1        0.0744
      8 CL        143.1265  137.5312  160.3940 Cl      1  UNL1       -0.0809
      9 C         142.6803  137.4449  156.4515 C.3     1  UNL1        0.1816
     10 S         142.3325  138.3282  157.6129 S.O2    1  UNL1        0.0113
     11 O         143.6822  138.9765  157.5240 O.2     1  UNL1       -0.1685
     12 O         140.9828  137.6798  157.7018 O.2     1  UNL1       -0.1685
     13 C         141.4493  141.5306  163.6308 C.2     1  UNL1        0.2308
     14 O         142.6643  142.2268  164.1686 O.2     1  UNL1       -0.2744
     15 N         140.7424  140.5038  164.4651 N.am    1  UNL1       -0.2678
     16 H         139.9450  140.0469  164.1121 H       1  UNL1        0.1563
     17 C         141.2505  140.1733  165.8372 C.ar    1  UNL1        0.1535
     18 C         140.5367  140.6979  167.0478 C.ar    1  UNL1        0.1329
     19 N         141.0447  140.3674  168.4199 N.ar    1  UNL1       -0.2412
     20 C         142.2665  139.5124  168.5815 C.ar    1  UNL1        0.1074
     21 C         142.9803  138.9878  167.3710 C.ar    1  UNL1        0.1175
     22 N         142.4722  139.3183  165.9988 N.ar    1  UNL1       -0.2261
     23 C         142.7745  139.1819  169.9536 C.3     1  UNL1        0.1811
     24 O         142.9918  137.7513  170.3484 O.3     1  UNL1       -0.3762
     25 H         142.7575  137.1720  169.6066 H       1  UNL1        0.2109
     26 C         143.0652  140.2821  170.9308 C.3     1  UNL1        0.1726
     27 O         142.0144  140.7113  171.9115 O.3     1  UNL1       -0.3792
     28 H         141.2705  141.1107  171.4340 H       1  UNL1        0.2106
     29 C         140.0855  143.0748  162.0480 C.3     1  UNL1        0.0135
     30 C         139.3167  143.6589  163.1960 C.3     1  UNL1        0.0008
     31 C         137.8883  143.3606  163.5432 C.3     1  UNL1        0.0000
     32 C         137.5301  144.1611  164.7601 C.3     1  UNL1        0.0000
     33 C         138.7372  144.9541  165.1651 C.3     1  UNL1        0.0000
     34 C         139.8415  144.6438  164.1984 C.3     1  UNL1        0.0000
@<TRIPOS>BOND
     1     9    10    1
     2    10    11    2
     3    10    12    2
     4    10     2    1
     5     2     3   ar
     6     3     4   ar
     7     4     5   ar
     8     5     1    1
     9     1    29    1
    10    29    30    1
    11    30    31    1
    12    31    32    1
    13    32    33    1
    14    33    34    1
    15     1    13    1
    16    13    14    2
    17    13    15   am
    18    15    17    1
    19    17    18   ar
    20    18    19   ar
    21    19    20   ar
    22    20    23    1
    23    23    24    1
    24    23    26    1
    25    26    27    1
    26    20    21   ar
    27    21    22   ar
    28     5     6   ar
    29     6     7   ar
    30     7     8    1
    31     7     2   ar
    32    34    30    1
    33    22    17   ar
    34    15    16    1
    35    24    25    1
    36    27    28    1
