@<TRIPOS>MOLECULE
*****
 38 42 0 0 0
SMALL
GASTEIGER

@<TRIPOS>ATOM
      1 C         141.1952  141.1918  169.8074 C.2     1  UNL1        0.4050
      2 O         142.6370  141.5854  169.9356 O.2     1  UNL1       -0.2262
      3 N         140.7203  140.4732  168.5793 N.am    1  UNL1       -0.2455
      4 C         139.3161  140.0187  168.3113 C.3     1  UNL1        0.0973
      5 C         139.2941  139.3475  166.9700 C.3     1  UNL1        0.0311
      6 C         138.4127  138.6519  165.9755 C.3     1  UNL1        0.0180
      7 C         139.2586  138.2615  164.7998 C.3     1  UNL1        0.0546
      8 C         140.6628  138.7159  165.0678 C.3     1  UNL1        0.0261
      9 C         140.6848  139.3871  166.4091 C.3     1  UNL1        0.0903
     10 C         141.5661  140.0828  167.4036 C.3     1  UNL1        0.1053
     11 C         142.0753  139.4267  165.8481 C.2     1  UNL1        0.2267
     12 O         143.0811  138.3940  166.2629 O.2     1  UNL1       -0.2748
     13 N         142.4602  140.4990  164.8723 N.am    1  UNL1       -0.2750
     14 C         143.8507  140.5385  164.3113 C.3     1  UNL1        0.1000
     15 C         144.2355  141.6108  163.3355 C.3     1  UNL1        0.0670
     16 C         143.2298  142.6434  162.9207 C.ar    1  UNL1        0.0583
     17 N         143.6146  143.7157  161.9448 N.ar    1  UNL1       -0.2484
     18 C         142.6089  144.7484  161.5300 C.ar    1  UNL1        0.1023
     19 C         141.2182  144.7087  162.0911 C.ar    1  UNL1        0.0902
     20 C         140.8334  143.6365  163.0668 C.ar    1  UNL1        0.0040
     21 C         141.8392  142.6039  163.4817 C.ar    1  UNL1        0.0113
     22 C         141.4544  141.5316  164.4574 C.3     1  UNL1        0.1213
     23 C         140.2125  145.7414  161.6762 C.3     1  UNL1        0.4200
     24 F         139.2067  146.7740  161.2614 F       1  UNL1       -0.1658
     25 F         140.8554  145.8242  160.3235 F       1  UNL1       -0.1658
     26 F         139.5695  145.6586  163.0289 F       1  UNL1       -0.1658
     27 C         139.5360  142.8472  170.9281 C.3     1  UNL1        0.2573
     28 O         140.2284  141.5168  170.9071 O.3     1  UNL1       -0.4304
     29 N         138.7836  137.5429  163.5718 N.3     1  UNL1       -0.2975
     30 H         137.8195  137.2615  163.7496 H       1  UNL1        0.1232
     31 C         138.7933  138.2403  162.2438 C.3     1  UNL1        0.0865
     32 C         137.5819  138.9969  161.7852 C.3     1  UNL1        0.0503
     33 C         137.5916  139.6944  160.4572 C.3     1  UNL1        0.1437
     34 O         138.8126  139.6353  159.5879 O.3     1  UNL1       -0.3511
     35 C         140.0239  138.8787  160.0466 C.3     1  UNL1        0.1729
     36 C         140.0143  138.1813  161.3745 C.3     1  UNL1        0.1591
     37 O         141.2256  137.4248  161.8332 O.3     1  UNL1       -0.3496
     38 C         142.5598  137.6910  161.2015 C.3     1  UNL1        0.1742
@<TRIPOS>BOND
     1    27    28    1
     2    28     1    1
     3     1     2    2
     4     1     3   am
     5     3     4    1
     6     5     4    1
     7     5     6    1
     8     6     7    1
     9     7    29    1
    10    29    31    1
    11    31    32    1
    12    32    33    1
    13    33    34    1
    14    34    35    1
    15    35    36    1
    16    36    37    1
    17    37    38    1
    18     7     8    1
    19     8     9    1
    20     9    11    1
    21    11    12    2
    22    11    13   am
    23    13    14    1
    24    14    15    1
    25    15    16    1
    26    16    17   ar
    27    17    18   ar
    28    18    19   ar
    29    19    23    1
    30    23    24    1
    31    23    25    1
    32    23    26    1
    33    19    20   ar
    34    20    21   ar
    35    21    22    1
    36     9    10    1
    37    10     3    1
    38     9     5    1
    39    22    13    1
    40    36    31    1
    41    21    16   ar
    42    29    30    1
@<TRIPOS>MOLECULE
*****
 38 42 0 0 0
SMALL
GASTEIGER

@<TRIPOS>ATOM
      1 C         141.7918  137.7870  156.8055 C.2     1  UNL1        0.4050
      2 O         143.1950  138.1033  156.3803 O.2     1  UNL1       -0.2262
      3 N         140.9917  138.8026  157.5662 N.am    1  UNL1       -0.2455
      4 C         139.5842  138.6297  158.0552 C.3     1  UNL1        0.0973
      5 C         139.1812  139.8895  158.7626 C.3     1  UNL1        0.0311
      6 C         138.0623  140.5613  159.5021 C.3     1  UNL1        0.0180
      7 C         138.5293  141.9279  159.9073 C.3     1  UNL1        0.0546
      8 C         139.9368  142.1008  159.4183 C.3     1  UNL1        0.0261
      9 C         140.3397  140.8410  158.7109 C.3     1  UNL1        0.0903
     10 C         141.4586  140.1692  157.9714 C.3     1  UNL1        0.1053
     11 C         141.4981  141.7925  158.6591 C.2     1  UNL1        0.2267
     12 O         141.6182  142.7670  157.5251 O.2     1  UNL1       -0.2748
     13 N         142.5366  141.7695  159.7414 N.am    1  UNL1       -0.2750
     14 C         143.6950  142.7209  159.6897 C.3     1  UNL1        0.1000
     15 C         144.7333  142.6979  160.7719 C.3     1  UNL1        0.0670
     16 C         144.6132  141.7234  161.9059 C.ar    1  UNL1        0.0583
     17 N         145.6516  141.7004  162.9882 N.ar    1  UNL1       -0.2484
     18 C         145.5315  140.7258  164.1222 C.ar    1  UNL1        0.1023
     19 C         144.3730  139.7744  164.1739 C.ar    1  UNL1        0.0902
     20 C         143.3347  139.7974  163.0916 C.ar    1  UNL1        0.0040
     21 C         143.4548  140.7719  161.9576 C.ar    1  UNL1        0.0113
     22 C         142.4165  140.7950  160.8754 C.3     1  UNL1        0.1213
     23 C         144.2529  138.7998  165.3078 C.3     1  UNL1        0.4200
     24 F         144.1328  137.8253  166.4418 F       1  UNL1       -0.1658
     25 F         145.7437  138.6344  165.3236 F       1  UNL1       -0.1658
     26 F         142.7622  138.9653  165.2921 F       1  UNL1       -0.1658
     27 C         140.4031  136.2855  155.2034 C.3     1  UNL1        0.2573
     28 O         141.1885  136.4553  156.4700 O.3     1  UNL1       -0.4304
     29 N         137.7292  142.9435  160.6680 N.3     1  UNL1       -0.2975
     30 H         136.7553  142.6433  160.6252 H       1  UNL1        0.1232
     31 C         138.0364  143.2121  162.1114 C.3     1  UNL1        0.0865
     32 C         137.5720  142.2539  163.1680 C.3     1  UNL1        0.0503
     33 C         137.8792  142.5226  164.6114 C.3     1  UNL1        0.1437
     34 O         138.6509  143.7493  164.9983 O.3     1  UNL1       -0.3511
     35 C         139.1153  144.7074  163.9417 C.3     1  UNL1        0.1729
     36 C         138.8080  144.4388  162.4983 C.3     1  UNL1        0.1591
     37 O         139.2724  145.3969  161.4418 O.3     1  UNL1       -0.3496
     38 C         140.6912  145.3488  160.9569 C.3     1  UNL1        0.1742
@<TRIPOS>BOND
     1    27    28    1
     2    28     1    1
     3     1     2    2
     4     1     3   am
     5     3     4    1
     6     5     4    1
     7     5     6    1
     8     6     7    1
     9     7    29    1
    10    29    31    1
    11    31    32    1
    12    32    33    1
    13    33    34    1
    14    34    35    1
    15    35    36    1
    16    36    37    1
    17    37    38    1
    18     7     8    1
    19     8     9    1
    20     9    11    1
    21    11    12    2
    22    11    13   am
    23    13    14    1
    24    14    15    1
    25    15    16    1
    26    16    17   ar
    27    17    18   ar
    28    18    19   ar
    29    19    23    1
    30    23    24    1
    31    23    25    1
    32    23    26    1
    33    19    20   ar
    34    20    21   ar
    35    21    22    1
    36     9    10    1
    37    10     3    1
    38     9     5    1
    39    22    13    1
    40    36    31    1
    41    21    16   ar
    42    29    30    1
@<TRIPOS>MOLECULE
*****
 38 42 0 0 0
SMALL
GASTEIGER

@<TRIPOS>ATOM
      1 C         141.1171  141.5297  169.6724 C.2     1  UNL1        0.4050
      2 O         139.7876  142.1680  169.9464 O.2     1  UNL1       -0.2262
      3 N         141.3075  140.6917  168.4429 N.am    1  UNL1       -0.2455
      4 C         142.5725  139.9942  168.0386 C.3     1  UNL1        0.0973
      5 C         142.3133  139.2755  166.7477 C.3     1  UNL1        0.0311
      6 C         142.9348  138.4003  165.7001 C.3     1  UNL1        0.0180
      7 C         141.8939  138.1127  164.6591 C.3     1  UNL1        0.0546
      8 C         140.6289  138.8102  165.0634 C.3     1  UNL1        0.0261
      9 C         140.8881  139.5289  166.3543 C.3     1  UNL1        0.0903
     10 C         140.2666  140.4041  167.4020 C.3     1  UNL1        0.1053
     11 C         139.4630  139.7821  165.9608 C.2     1  UNL1        0.2267
     12 O         138.3454  139.2772  166.8245 O.2     1  UNL1       -0.2748
     13 N         139.1555  140.5405  164.7036 N.am    1  UNL1       -0.2750
     14 C         137.7303  140.7937  164.3101 C.3     1  UNL1        0.1000
     15 C         137.4229  141.5520  163.0530 C.3     1  UNL1        0.0670
     16 C         138.5405  142.0570  162.1894 C.ar    1  UNL1        0.0583
     17 N         138.2329  142.8153  160.9322 N.ar    1  UNL1       -0.2484
     18 C         139.3506  143.3203  160.0685 C.ar    1  UNL1        0.1023
     19 C         140.7757  143.0670  160.4620 C.ar    1  UNL1        0.0902
     20 C         141.0832  142.3087  161.7192 C.ar    1  UNL1        0.0040
     21 C         139.9656  141.8037  162.5828 C.ar    1  UNL1        0.0113
     22 C         140.2731  141.0454  163.8400 C.3     1  UNL1        0.1213
     23 C         141.8934  143.5720  159.5984 C.3     1  UNL1        0.4200
     24 F         143.0110  144.0770  158.7347 F       1  UNL1       -0.1658
     25 F         141.9266  144.8474  160.3872 F       1  UNL1       -0.1658
     26 F         141.8601  142.2965  158.8096 F       1  UNL1       -0.1658
     27 C         143.2826  142.7896  170.3600 C.3     1  UNL1        0.2573
     28 O         142.2560  141.7293  170.6278 O.3     1  UNL1       -0.4304
     29 N         142.0843  137.2747  163.4296 N.3     1  UNL1       -0.2975
     30 H         141.2776  136.6534  163.3688 H       1  UNL1        0.1232
     31 C         142.2268  137.9318  162.0888 C.3     1  UNL1        0.0865
     32 C         143.5725  138.4050  161.6246 C.3     1  UNL1        0.0503
     33 C         143.7150  139.0621  160.2838 C.3     1  UNL1        0.1437
     34 O         142.5118  139.2461  159.4071 O.3     1  UNL1       -0.3511
     35 C         141.1662  138.7730  159.8713 C.3     1  UNL1        0.1729
     36 C         141.0237  138.1159  161.2121 C.3     1  UNL1        0.1591
     37 O         139.6781  137.6428  161.6763 O.3     1  UNL1       -0.3496
     38 C         138.4509  138.4458  161.3610 C.3     1  UNL1        0.1742
@<TRIPOS>BOND
     1    27    28    1
     2    28     1    1
     3     1     2    2
     4     1     3   am
     5     3     4    1
     6     5     4    1
     7     5     6    1
     8     6     7    1
     9     7    29    1
    10    29    31    1
    11    31    32    1
    12    32    33    1
    13    33    34    1
    14    34    35    1
    15    35    36    1
    16    36    37    1
    17    37    38    1
    18     7     8    1
    19     8     9    1
    20     9    11    1
    21    11    12    2
    22    11    13   am
    23    13    14    1
    24    14    15    1
    25    15    16    1
    26    16    17   ar
    27    17    18   ar
    28    18    19   ar
    29    19    23    1
    30    23    24    1
    31    23    25    1
    32    23    26    1
    33    19    20   ar
    34    20    21   ar
    35    21    22    1
    36     9    10    1
    37    10     3    1
    38     9     5    1
    39    22    13    1
    40    36    31    1
    41    21    16   ar
    42    29    30    1
@<TRIPOS>MOLECULE
*****
 38 42 0 0 0
SMALL
GASTEIGER

@<TRIPOS>ATOM
      1 C         137.7365  140.8802  156.8969 C.2     1  UNL1        0.4050
      2 O         138.0132  139.4643  156.4862 O.2     1  UNL1       -0.2262
      3 N         138.7221  141.6190  157.7531 N.am    1  UNL1       -0.2455
      4 C         138.5826  143.0309  158.2401 C.3     1  UNL1        0.0973
      5 C         139.7943  143.3601  159.0605 C.3     1  UNL1        0.0311
      6 C         140.4571  144.4361  159.8686 C.3     1  UNL1        0.0180
      7 C         141.7551  143.8928  160.3880 C.3     1  UNL1        0.0546
      8 C         141.8946  142.4809  159.9010 C.3     1  UNL1        0.0261
      9 C         140.6828  142.1517  159.0806 C.3     1  UNL1        0.0903
     10 C         140.0201  141.0756  158.2726 C.3     1  UNL1        0.1053
     11 C         141.5712  140.9433  159.1007 C.2     1  UNL1        0.2267
     12 O         142.5570  140.7186  157.9926 O.2     1  UNL1       -0.2748
     13 N         141.4739  139.9595  160.2288 N.am    1  UNL1       -0.2750
     14 C         142.3624  138.7511  160.2489 C.3     1  UNL1        0.1000
     15 C         142.2651  137.7673  161.3771 C.3     1  UNL1        0.0670
     16 C         141.2793  137.9920  162.4851 C.ar    1  UNL1        0.0583
     17 N         141.1820  137.0082  163.6133 N.ar    1  UNL1       -0.2484
     18 C         140.1962  137.2328  164.7213 C.ar    1  UNL1        0.1023
     19 C         139.3077  138.4412  164.7012 C.ar    1  UNL1        0.0902
     20 C         139.4051  139.4250  163.5731 C.ar    1  UNL1        0.0040
     21 C         140.3908  139.2003  162.4650 C.ar    1  UNL1        0.0113
     22 C         140.4882  140.1841  161.3369 C.3     1  UNL1        0.1213
     23 C         138.3219  138.6659  165.8093 C.3     1  UNL1        0.4200
     24 F         137.3362  138.8905  166.9173 F       1  UNL1       -0.1658
     25 F         138.4883  140.1488  165.6567 F       1  UNL1       -0.1658
     26 F         138.1555  137.1830  165.9619 F       1  UNL1       -0.1658
     27 C         135.2682  140.7384  156.0987 C.3     1  UNL1        0.2573
     28 O         136.4744  141.5573  156.4515 O.3     1  UNL1       -0.4304
     29 N         142.7406  144.6316  161.2442 N.3     1  UNL1       -0.2975
     30 H         142.2454  145.4299  161.6413 H       1  UNL1        0.1232
     31 C         143.4168  143.9304  162.3849 C.3     1  UNL1        0.0865
     32 C         144.5723  143.0109  162.1211 C.3     1  UNL1        0.0503
     33 C         145.2484  142.3097  163.2618 C.3     1  UNL1        0.1437
     34 O         144.7691  142.5280  164.6663 O.3     1  UNL1       -0.3511
     35 C         143.6136  143.4474  164.9301 C.3     1  UNL1        0.1729
     36 C         142.9375  144.1486  163.7894 C.3     1  UNL1        0.1591
     37 O         141.7821  145.0680  164.0532 O.3     1  UNL1       -0.3496
     38 C         140.3927  144.5137  164.1643 C.3     1  UNL1        0.1742
@<TRIPOS>BOND
     1    27    28    1
     2    28     1    1
     3     1     2    2
     4     1     3   am
     5     3     4    1
     6     5     4    1
     7     5     6    1
     8     6     7    1
     9     7    29    1
    10    29    31    1
    11    31    32    1
    12    32    33    1
    13    33    34    1
    14    34    35    1
    15    35    36    1
    16    36    37    1
    17    37    38    1
    18     7     8    1
    19     8     9    1
    20     9    11    1
    21    11    12    2
    22    11    13   am
    23    13    14    1
    24    14    15    1
    25    15    16    1
    26    16    17   ar
    27    17    18   ar
    28    18    19   ar
    29    19    23    1
    30    23    24    1
    31    23    25    1
    32    23    26    1
    33    19    20   ar
    34    20    21   ar
    35    21    22    1
    36     9    10    1
    37    10     3    1
    38     9     5    1
    39    22    13    1
    40    36    31    1
    41    21    16   ar
    42    29    30    1
@<TRIPOS>MOLECULE
*****
 38 42 0 0 0
SMALL
GASTEIGER

@<TRIPOS>ATOM
      1 C         141.8089  137.4377  157.1942 C.2     1  UNL1        0.4050
      2 O         143.2610  137.2479  157.5190 O.2     1  UNL1       -0.2262
      3 N         141.0246  138.5227  157.8709 N.am    1  UNL1       -0.2455
      4 C         139.5734  138.8309  157.6492 C.3     1  UNL1        0.0973
      5 C         139.2057  139.9885  158.5293 C.3     1  UNL1        0.0311
      6 C         138.0816  140.8945  158.9362 C.3     1  UNL1        0.0180
      7 C         138.6107  141.8617  159.9533 C.3     1  UNL1        0.0546
      8 C         140.0619  141.5535  160.1750 C.3     1  UNL1        0.0261
      9 C         140.4297  140.3958  159.2949 C.3     1  UNL1        0.0903
     10 C         141.5538  139.4898  158.8880 C.3     1  UNL1        0.1053
     11 C         141.6535  140.8031  160.0605 C.2     1  UNL1        0.2267
     12 O         142.8295  141.3902  159.3378 O.2     1  UNL1       -0.2748
     13 N         141.7014  140.6233  161.5490 N.am    1  UNL1       -0.2750
     14 C         142.9253  141.0305  162.3146 C.3     1  UNL1        0.1000
     15 C         142.9732  140.8507  163.8030 C.3     1  UNL1        0.0670
     16 C         141.7972  140.2636  164.5258 C.ar    1  UNL1        0.0583
     17 N         141.8451  140.0838  166.0142 N.ar    1  UNL1       -0.2484
     18 C         140.6692  139.4967  166.7370 C.ar    1  UNL1        0.1023
     19 C         139.4452  139.0894  165.9713 C.ar    1  UNL1        0.0902
     20 C         139.3974  139.2692  164.4829 C.ar    1  UNL1        0.0040
     21 C         140.5733  139.8563  163.7601 C.ar    1  UNL1        0.0113
     22 C         140.5255  140.0361  162.2718 C.3     1  UNL1        0.1213
     23 C         138.2693  138.5023  166.6940 C.3     1  UNL1        0.4200
     24 F         137.0933  137.9152  167.4168 F       1  UNL1       -0.1658
     25 F         138.3810  139.5691  167.7425 F       1  UNL1       -0.1658
     26 F         138.1575  137.4354  165.6455 F       1  UNL1       -0.1658
     27 C         141.7691  135.2317  155.8225 C.3     1  UNL1        0.2573
     28 O         141.1411  136.5425  156.1929 O.3     1  UNL1       -0.4304
     29 N         137.8264  142.9466  160.6300 N.3     1  UNL1       -0.2975
     30 H         136.8409  142.7036  160.5301 H       1  UNL1        0.1232
     31 C         138.0545  143.2423  162.0827 C.3     1  UNL1        0.0865
     32 C         137.5737  142.2803  163.1284 C.3     1  UNL1        0.0503
     33 C         137.8018  142.5760  164.5812 C.3     1  UNL1        0.1437
     34 O         138.5106  143.8338  164.9883 O.3     1  UNL1       -0.3511
     35 C         138.9914  144.7957  163.9426 C.3     1  UNL1        0.1729
     36 C         138.7633  144.5000  162.4898 C.3     1  UNL1        0.1591
     37 O         139.2441  145.4620  161.4442 O.3     1  UNL1       -0.3496
     38 C         140.6259  145.3242  160.8769 C.3     1  UNL1        0.1742
@<TRIPOS>BOND
     1    27    28    1
     2    28     1    1
     3     1     2    2
     4     1     3   am
     5     3     4    1
     6     5     4    1
     7     5     6    1
     8     6     7    1
     9     7    29    1
    10    29    31    1
    11    31    32    1
    12    32    33    1
    13    33    34    1
    14    34    35    1
    15    35    36    1
    16    36    37    1
    17    37    38    1
    18     7     8    1
    19     8     9    1
    20     9    11    1
    21    11    12    2
    22    11    13   am
    23    13    14    1
    24    14    15    1
    25    15    16    1
    26    16    17   ar
    27    17    18   ar
    28    18    19   ar
    29    19    23    1
    30    23    24    1
    31    23    25    1
    32    23    26    1
    33    19    20   ar
    34    20    21   ar
    35    21    22    1
    36     9    10    1
    37    10     3    1
    38     9     5    1
    39    22    13    1
    40    36    31    1
    41    21    16   ar
    42    29    30    1
@<TRIPOS>MOLECULE
*****
 38 42 0 0 0
SMALL
GASTEIGER

@<TRIPOS>ATOM
      1 C         140.7303  141.9174  169.2122 C.2     1  UNL1        0.4050
      2 O         140.6945  143.3988  169.4451 O.2     1  UNL1       -0.2262
      3 N         141.5252  141.3567  168.0704 N.am    1  UNL1       -0.2455
      4 C         141.6546  139.9051  167.7150 C.3     1  UNL1        0.0973
      5 C         142.5397  139.8003  166.5085 C.3     1  UNL1        0.0311
      6 C         143.1666  138.8385  165.5432 C.3     1  UNL1        0.0180
      7 C         143.9718  139.6309  164.5564 C.3     1  UNL1        0.0546
      8 C         143.8424  141.0824  164.9118 C.3     1  UNL1        0.0261
      9 C         142.9573  141.1872  166.1183 C.3     1  UNL1        0.0903
     10 C         142.3304  142.1490  167.0836 C.3     1  UNL1        0.1053
     11 C         143.3750  142.5740  165.7280 C.2     1  UNL1        0.2267
     12 O         144.3621  143.3253  166.5714 O.2     1  UNL1       -0.2748
     13 N         142.8057  143.2095  164.4943 N.am    1  UNL1       -0.2750
     14 C         143.2234  144.5963  164.1040 C.3     1  UNL1        0.1000
     15 C         142.6540  145.2317  162.8703 C.3     1  UNL1        0.0670
     16 C         141.6670  144.4804  162.0269 C.ar    1  UNL1        0.0583
     17 N         141.0976  145.1159  160.7932 N.ar    1  UNL1       -0.2484
     18 C         140.1106  144.3646  159.9498 C.ar    1  UNL1        0.1023
     19 C         139.6929  142.9778  160.3401 C.ar    1  UNL1        0.0902
     20 C         140.2623  142.3423  161.5738 C.ar    1  UNL1        0.0040
     21 C         141.2493  143.0936  162.4172 C.ar    1  UNL1        0.0113
     22 C         141.8187  142.4582  163.6509 C.3     1  UNL1        0.1213
     23 C         138.7059  142.2265  159.4967 C.3     1  UNL1        0.4200
     24 F         137.7189  141.4751  158.6533 F       1  UNL1       -0.1658
     25 F         138.9911  143.1445  158.3452 F       1  UNL1       -0.1658
     26 F         138.4208  141.3084  160.6482 F       1  UNL1       -0.1658
     27 C         140.6590  140.3676  171.2962 C.3     1  UNL1        0.2573
     28 O         139.9711  140.9968  170.1211 O.3     1  UNL1       -0.4304
     29 N         144.7668  139.0701  163.4146 N.3     1  UNL1       -0.2975
     30 H         145.0086  138.1118  163.6667 H       1  UNL1        0.1232
     31 C         144.1702  139.0187  162.0393 C.3     1  UNL1        0.0865
     32 C         143.5777  137.7397  161.5261 C.3     1  UNL1        0.0503
     33 C         142.9812  137.6882  160.1508 C.3     1  UNL1        0.1437
     34 O         142.9772  138.9157  159.2886 O.3     1  UNL1       -0.3511
     35 C         143.5697  140.1946  159.8018 C.3     1  UNL1        0.1729
     36 C         144.1662  140.2461  161.1771 C.3     1  UNL1        0.1591
     37 O         144.7587  141.5250  161.6902 O.3     1  UNL1       -0.3496
     38 C         144.6861  142.7717  160.8593 C.3     1  UNL1        0.1742
@<TRIPOS>BOND
     1    27    28    1
     2    28     1    1
     3     1     2    2
     4     1     3   am
     5     3     4    1
     6     5     4    1
     7     5     6    1
     8     6     7    1
     9     7    29    1
    10    29    31    1
    11    31    32    1
    12    32    33    1
    13    33    34    1
    14    34    35    1
    15    35    36    1
    16    36    37    1
    17    37    38    1
    18     7     8    1
    19     8     9    1
    20     9    11    1
    21    11    12    2
    22    11    13   am
    23    13    14    1
    24    14    15    1
    25    15    16    1
    26    16    17   ar
    27    17    18   ar
    28    18    19   ar
    29    19    23    1
    30    23    24    1
    31    23    25    1
    32    23    26    1
    33    19    20   ar
    34    20    21   ar
    35    21    22    1
    36     9    10    1
    37    10     3    1
    38     9     5    1
    39    22    13    1
    40    36    31    1
    41    21    16   ar
    42    29    30    1
@<TRIPOS>MOLECULE
*****
 38 42 0 0 0
SMALL
GASTEIGER

@<TRIPOS>ATOM
      1 C         142.2489  135.7330  156.4640 C.2     1  UNL1        0.4050
      2 O         143.6126  135.2434  156.8522 O.2     1  UNL1       -0.2262
      3 N         141.7305  137.0266  157.0190 N.am    1  UNL1       -0.2455
      4 C         140.3940  137.6402  156.7233 C.3     1  UNL1        0.0973
      5 C         140.2950  138.9265  157.4885 C.3     1  UNL1        0.0311
      6 C         139.4078  140.1007  157.7788 C.3     1  UNL1        0.0180
      7 C         140.1348  141.0078  158.7267 C.3     1  UNL1        0.0546
      8 C         141.4713  140.3943  159.0223 C.3     1  UNL1        0.0261
      9 C         141.5704  139.1079  158.2571 C.3     1  UNL1        0.0903
     10 C         142.4575  137.9337  157.9669 C.3     1  UNL1        0.1053
     11 C         142.8456  139.2894  159.0256 C.2     1  UNL1        0.2267
     12 O         144.1305  139.5482  158.2962 O.2     1  UNL1       -0.2748
     13 N         142.8360  139.2121  160.5237 N.am    1  UNL1       -0.2750
     14 C         144.1113  139.3936  161.2922 C.3     1  UNL1        0.1000
     15 C         144.1017  139.3163  162.7901 C.3     1  UNL1        0.0670
     16 C         142.8168  139.0575  163.5196 C.ar    1  UNL1        0.0583
     17 N         142.8072  138.9803  165.0176 N.ar    1  UNL1       -0.2484
     18 C         141.5222  138.7215  165.7470 C.ar    1  UNL1        0.1023
     19 C         140.2469  138.5400  164.9784 C.ar    1  UNL1        0.0902
     20 C         140.2566  138.6173  163.4804 C.ar    1  UNL1        0.0040
     21 C         141.5415  138.8761  162.7510 C.ar    1  UNL1        0.0113
     22 C         141.5511  138.9534  161.2531 C.3     1  UNL1        0.1213
     23 C         138.9620  138.2813  165.7078 C.3     1  UNL1        0.4200
     24 F         137.6771  138.0225  166.4372 F       1  UNL1       -0.1658
     25 F         138.5996  137.2334  164.6976 F       1  UNL1       -0.1658
     26 F         139.3245  139.3292  166.7180 F       1  UNL1       -0.1658
     27 C         141.6004  133.4458  155.4163 C.3     1  UNL1        0.2573
     28 O         141.4037  134.9291  155.5210 O.3     1  UNL1       -0.4304
     29 N         139.6164  142.3014  159.2816 N.3     1  UNL1       -0.2975
     30 H         138.9780  142.6858  158.5851 H       1  UNL1        0.1232
     31 C         138.8873  142.3166  160.5924 C.3     1  UNL1        0.0865
     32 C         138.2630  141.0580  161.1180 C.3     1  UNL1        0.0503
     33 C         137.5339  141.0731  162.4287 C.3     1  UNL1        0.1437
     34 O         137.4291  142.3469  163.2140 O.3     1  UNL1       -0.3511
     35 C         138.0534  143.6055  162.6884 C.3     1  UNL1        0.1729
     36 C         138.7825  143.5903  161.3776 C.3     1  UNL1        0.1591
     37 O         139.4068  144.8488  160.8521 O.3     1  UNL1       -0.3496
     38 C         139.7864  145.9495  161.7979 C.3     1  UNL1        0.1742
@<TRIPOS>BOND
     1    27    28    1
     2    28     1    1
     3     1     2    2
     4     1     3   am
     5     3     4    1
     6     5     4    1
     7     5     6    1
     8     6     7    1
     9     7    29    1
    10    29    31    1
    11    31    32    1
    12    32    33    1
    13    33    34    1
    14    34    35    1
    15    35    36    1
    16    36    37    1
    17    37    38    1
    18     7     8    1
    19     8     9    1
    20     9    11    1
    21    11    12    2
    22    11    13   am
    23    13    14    1
    24    14    15    1
    25    15    16    1
    26    16    17   ar
    27    17    18   ar
    28    18    19   ar
    29    19    23    1
    30    23    24    1
    31    23    25    1
    32    23    26    1
    33    19    20   ar
    34    20    21   ar
    35    21    22    1
    36     9    10    1
    37    10     3    1
    38     9     5    1
    39    22    13    1
    40    36    31    1
    41    21    16   ar
    42    29    30    1
@<TRIPOS>MOLECULE
*****
 38 42 0 0 0
SMALL
GASTEIGER

@<TRIPOS>ATOM
      1 C         141.7356  141.7738  169.9850 C.2     1  UNL1        0.4050
      2 O         141.5415  143.2563  170.1049 O.2     1  UNL1       -0.2262
      3 N         142.2732  141.1883  168.7129 N.am    1  UNL1       -0.2455
      4 C         142.5195  139.7326  168.4473 C.3     1  UNL1        0.0973
      5 C         143.0574  139.6003  167.0534 C.3     1  UNL1        0.0311
      6 C         143.5421  138.6189  166.0277 C.3     1  UNL1        0.0180
      7 C         143.9279  139.3862  164.7979 C.3     1  UNL1        0.0546
      8 C         143.6816  140.8418  165.0635 C.3     1  UNL1        0.0261
      9 C         143.1437  140.9742  166.4574 C.3     1  UNL1        0.0903
     10 C         142.6590  141.9556  167.4831 C.3     1  UNL1        0.1053
     11 C         143.2299  142.3480  165.8615 C.2     1  UNL1        0.2267
     12 O         144.2032  143.3460  166.4153 O.2     1  UNL1       -0.2748
     13 N         142.3429  142.7238  164.7117 N.am    1  UNL1       -0.2750
     14 C         142.4292  144.0976  164.1158 C.3     1  UNL1        0.1000
     15 C         141.5421  144.4734  162.9661 C.3     1  UNL1        0.0670
     16 C         140.5689  143.4754  162.4122 C.ar    1  UNL1        0.0583
     17 N         139.6818  143.8513  161.2624 N.ar    1  UNL1       -0.2484
     18 C         138.7086  142.8533  160.7086 C.ar    1  UNL1        0.1023
     19 C         138.6223  141.4794  161.3046 C.ar    1  UNL1        0.0902
     20 C         139.5093  141.1036  162.4543 C.ar    1  UNL1        0.0040
     21 C         140.4826  142.1016  163.0082 C.ar    1  UNL1        0.0113
     22 C         141.3696  141.7258  164.1579 C.3     1  UNL1        0.1213
     23 C         137.6491  140.4814  160.7508 C.3     1  UNL1        0.4200
     24 F         136.6758  139.4834  160.1970 F       1  UNL1       -0.1658
     25 F         137.4000  139.9568  162.1338 F       1  UNL1       -0.1658
     26 F         137.8982  141.0060  159.3677 F       1  UNL1       -0.1658
     27 C         140.1458  140.0433  171.0929 C.3     1  UNL1        0.2573
     28 O         141.3921  140.8767  171.1371 O.3     1  UNL1       -0.4304
     29 N         144.4655  138.8007  163.5258 N.3     1  UNL1       -0.2975
     30 H         144.6160  137.8069  163.6996 H       1  UNL1        0.1232
     31 C         143.6701  138.9030  162.2582 C.3     1  UNL1        0.0865
     32 C         144.2140  139.6732  161.0915 C.3     1  UNL1        0.0503
     33 C         143.4186  139.7755  159.8239 C.3     1  UNL1        0.1437
     34 O         142.0793  139.1076  159.7229 O.3     1  UNL1       -0.3511
     35 C         141.5354  138.3374  160.8895 C.3     1  UNL1        0.1729
     36 C         142.3308  138.2351  162.1572 C.3     1  UNL1        0.1591
     37 O         141.7869  137.4650  163.3238 O.3     1  UNL1       -0.3496
     38 C         140.3882  137.7179  163.8031 C.3     1  UNL1        0.1742
@<TRIPOS>BOND
     1    27    28    1
     2    28     1    1
     3     1     2    2
     4     1     3   am
     5     3     4    1
     6     5     4    1
     7     5     6    1
     8     6     7    1
     9     7    29    1
    10    29    31    1
    11    31    32    1
    12    32    33    1
    13    33    34    1
    14    34    35    1
    15    35    36    1
    16    36    37    1
    17    37    38    1
    18     7     8    1
    19     8     9    1
    20     9    11    1
    21    11    12    2
    22    11    13   am
    23    13    14    1
    24    14    15    1
    25    15    16    1
    26    16    17   ar
    27    17    18   ar
    28    18    19   ar
    29    19    23    1
    30    23    24    1
    31    23    25    1
    32    23    26    1
    33    19    20   ar
    34    20    21   ar
    35    21    22    1
    36     9    10    1
    37    10     3    1
    38     9     5    1
    39    22    13    1
    40    36    31    1
    41    21    16   ar
    42    29    30    1
@<TRIPOS>MOLECULE
*****
 38 42 0 0 0
SMALL
GASTEIGER

@<TRIPOS>ATOM
      1 C         142.1302  142.1191  155.5008 C.2     1  UNL1        0.4050
      2 O         143.4847  141.4954  155.3387 O.2     1  UNL1       -0.2262
      3 N         141.1924  141.6118  156.5560 N.am    1  UNL1       -0.2455
      4 C         139.8138  142.1332  156.8348 C.3     1  UNL1        0.0973
      5 C         139.2379  141.3377  157.9686 C.3     1  UNL1        0.0311
      6 C         138.0300  141.1683  158.8417 C.3     1  UNL1        0.0180
      7 C         138.3061  140.0506  159.8032 C.3     1  UNL1        0.0546
      8 C         139.6846  139.5292  159.5243 C.3     1  UNL1        0.0261
      9 C         140.2606  140.3247  158.3905 C.3     1  UNL1        0.0903
     10 C         141.4685  140.4941  157.5174 C.3     1  UNL1        0.1053
     11 C         141.2831  139.3116  158.8124 C.2     1  UNL1        0.2267
     12 O         141.3281  137.9687  158.1456 O.2     1  UNL1       -0.2748
     13 N         142.2609  139.6414  159.9012 N.am    1  UNL1       -0.2750
     14 C         143.2835  138.6284  160.3230 C.3     1  UNL1        0.1000
     15 C         144.2611  138.9582  161.4118 C.3     1  UNL1        0.0670
     16 C         144.2162  140.3011  162.0786 C.ar    1  UNL1        0.0583
     17 N         145.1939  140.6309  163.1673 N.ar    1  UNL1       -0.2484
     18 C         145.1490  141.9738  163.8342 C.ar    1  UNL1        0.1023
     19 C         144.1264  142.9869  163.4122 C.ar    1  UNL1        0.0902
     20 C         143.1487  142.6570  162.3235 C.ar    1  UNL1        0.0040
     21 C         143.1936  141.3142  161.6567 C.ar    1  UNL1        0.0113
     22 C         142.2160  140.9843  160.5680 C.3     1  UNL1        0.1213
     23 C         144.0815  144.3297  164.0791 C.3     1  UNL1        0.4200
     24 F         144.0365  145.6726  164.7459 F       1  UNL1       -0.1658
     25 F         143.7987  143.6670  165.3947 F       1  UNL1       -0.1658
     26 F         144.3642  144.9925  162.7635 F       1  UNL1       -0.1658
     27 C         142.2142  144.6388  154.8735 C.3     1  UNL1        0.2573
     28 O         141.7135  143.2500  154.6080 O.3     1  UNL1       -0.4304
     29 N         137.3683  139.5433  160.8583 N.3     1  UNL1       -0.2975
     30 H         137.0104  138.6471  160.5280 H       1  UNL1        0.1232
     31 C         137.8620  139.3232  162.2575 C.3     1  UNL1        0.0865
     32 C         138.5237  138.0280  162.6243 C.3     1  UNL1        0.0503
     33 C         139.0174  137.8079  164.0236 C.3     1  UNL1        0.1437
     34 O         138.8494  138.8831  165.0560 O.3     1  UNL1       -0.3511
     35 C         138.1877  140.1783  164.6891 C.3     1  UNL1        0.1729
     36 C         137.6940  140.3983  163.2899 C.3     1  UNL1        0.1591
     37 O         137.0323  141.6935  162.9231 O.3     1  UNL1       -0.3496
     38 C         137.8408  142.8050  162.3222 C.3     1  UNL1        0.1742
@<TRIPOS>BOND
     1    27    28    1
     2    28     1    1
     3     1     2    2
     4     1     3   am
     5     3     4    1
     6     5     4    1
     7     5     6    1
     8     6     7    1
     9     7    29    1
    10    29    31    1
    11    31    32    1
    12    32    33    1
    13    33    34    1
    14    34    35    1
    15    35    36    1
    16    36    37    1
    17    37    38    1
    18     7     8    1
    19     8     9    1
    20     9    11    1
    21    11    12    2
    22    11    13   am
    23    13    14    1
    24    14    15    1
    25    15    16    1
    26    16    17   ar
    27    17    18   ar
    28    18    19   ar
    29    19    23    1
    30    23    24    1
    31    23    25    1
    32    23    26    1
    33    19    20   ar
    34    20    21   ar
    35    21    22    1
    36     9    10    1
    37    10     3    1
    38     9     5    1
    39    22    13    1
    40    36    31    1
    41    21    16   ar
    42    29    30    1
