@<TRIPOS>MOLECULE
*****
 35 38 0 0 0
SMALL
GASTEIGER

@<TRIPOS>ATOM
      1 C         140.3996  141.5299  167.6663 C.ar    1  UNL1        0.0533
      2 C         139.9066  140.4958  166.6979 C.ar    1  UNL1        0.0489
      3 C         138.9553  139.4310  167.1575 C.ar    1  UNL1        0.1345
      4 N         138.4970  139.4002  168.5854 N.ar    1  UNL1       -0.2288
      5 C         138.9899  140.4343  169.5538 C.ar    1  UNL1        0.1060
      6 C         139.9412  141.4991  169.0942 C.ar    1  UNL1        0.0854
      7 C         140.4342  142.5332  170.0626 C.2     1  UNL1        0.2455
      8 N         139.4879  143.1452  171.0525 N.am    1  UNL1       -0.3252
      9 O         141.8734  142.9551  170.0410 O.2     1  UNL1       -0.2703
     10 H         138.5433  142.8683  171.0666 H       1  UNL1        0.1453
     11 H         139.8114  143.8239  171.6880 H       1  UNL1        0.1453
     12 N         141.3508  142.5947  167.2067 N.pl3   1  UNL1       -0.3337
     13 H         141.8947  143.0859  167.8640 H       1  UNL1        0.1468
     14 N         141.7185  143.5439  162.8233 N.pl3   1  UNL1       -0.2931
     15 C         142.7861  142.7446  163.5098 C.3     1  UNL1        0.0939
     16 C         142.6636  142.4282  164.9709 C.3     1  UNL1        0.0410
     17 C         141.4734  142.9111  165.7456 C.3     1  UNL1        0.0724
     18 C         140.4058  143.7104  165.0592 C.3     1  UNL1        0.0410
     19 C         140.5283  144.0268  163.5980 C.3     1  UNL1        0.0939
     20 C         142.0862  144.4931  158.4400 C.ar    1  UNL1        0.0877
     21 C         141.1068  145.2460  159.2908 C.ar    1  UNL1        0.0147
     22 C         140.9842  144.9295  160.7519 C.ar    1  UNL1        0.0350
     23 C         141.8411  143.8603  161.3622 C.ar    1  UNL1        0.1317
     24 N         142.8205  143.1075  160.5114 N.ar    1  UNL1       -0.2285
     25 C         142.9431  143.4239  159.0503 C.ar    1  UNL1        0.1105
     26 N         142.3313  145.1260  155.5178 N.1     1  UNL1       -0.1908
     27 C         142.2087  144.8096  156.9789 C.1     1  UNL1        0.1020
     28 N         138.4623  138.3969  166.1891 N.pl3   1  UNL1       -0.2821
     29 H         137.6946  137.8277  166.4253 H       1  UNL1        0.1551
     30 C         139.1392  138.2301  164.8609 C.ar    1  UNL1        0.1526
     31 C         138.5737  138.8968  163.6420 C.ar    1  UNL1        0.1332
     32 N         139.2505  138.7300  162.3138 N.ar    1  UNL1       -0.2378
     33 C         140.4928  137.8965  162.2046 C.ar    1  UNL1        0.1196
     34 C         141.0583  137.2298  163.4235 C.ar    1  UNL1        0.1210
     35 N         140.3814  137.3966  164.7517 N.ar    1  UNL1       -0.2258
@<TRIPOS>BOND
     1    26    27    3
     2    27    20    1
     3    20    21   ar
     4    21    22   ar
     5    22    23   ar
     6    23    14    1
     7    14    15    1
     8    15    16    1
     9    16    17    1
    10    17    12    1
    11    12     1    1
    12     1     2   ar
    13     2     3   ar
    14     3    28    1
    15    28    30    1
    16    30    31   ar
    17    31    32   ar
    18    32    33   ar
    19    33    34   ar
    20    34    35   ar
    21     3     4   ar
    22     4     5   ar
    23     5     6   ar
    24     6     7    1
    25     7     8   am
    26     7     9    2
    27    17    18    1
    28    18    19    1
    29    23    24   ar
    30    24    25   ar
    31    25    20   ar
    32    19    14    1
    33     6     1   ar
    34    35    30   ar
    35    12    13    1
    36    28    29    1
    37     8    10    1
    38     8    11    1
@<TRIPOS>MOLECULE
*****
 35 38 0 0 0
SMALL
GASTEIGER

@<TRIPOS>ATOM
      1 C         141.5741  141.3490  167.8557 C.ar    1  UNL1        0.0533
      2 C         140.5236  140.5659  167.1252 C.ar    1  UNL1        0.0489
      3 C         139.4348  139.8751  167.8915 C.ar    1  UNL1        0.1345
      4 N         139.3964  139.9672  169.3882 N.ar    1  UNL1       -0.2288
      5 C         140.4468  140.7502  170.1186 C.ar    1  UNL1        0.1060
      6 C         141.5357  141.4411  169.3524 C.ar    1  UNL1        0.0854
      7 C         142.5861  142.2241  170.0828 C.2     1  UNL1        0.2455
      8 N         142.3363  142.6848  171.4883 N.am    1  UNL1       -0.3252
      9 O         143.8862  142.5463  169.4078 O.2     1  UNL1       -0.2703
     10 H         141.4830  142.4733  171.9313 H       1  UNL1        0.1453
     11 H         143.0257  143.1987  171.9677 H       1  UNL1        0.1453
     12 N         142.6629  142.0398  167.0894 N.pl3   1  UNL1       -0.3337
     13 H         143.5536  142.1528  167.4934 H       1  UNL1        0.1468
     14 N         141.8583  143.5959  162.9444 N.pl3   1  UNL1       -0.2931
     15 C         143.1242  142.8439  163.2306 C.3     1  UNL1        0.0939
     16 C         143.3924  142.3252  164.6123 C.3     1  UNL1        0.0410
     17 C         142.3947  142.5585  165.7078 C.3     1  UNL1        0.0724
     18 C         141.1288  143.3105  165.4216 C.3     1  UNL1        0.0410
     19 C         140.8606  143.8292  164.0399 C.3     1  UNL1        0.0939
     20 C         141.0537  145.1520  158.7994 C.ar    1  UNL1        0.0877
     21 C         142.0748  144.0737  159.0106 C.ar    1  UNL1        0.0147
     22 C         142.3430  143.5550  160.3923 C.ar    1  UNL1        0.0350
     23 C         141.5901  144.1146  161.5627 C.ar    1  UNL1        0.1317
     24 N         140.5690  145.1929  161.3515 N.ar    1  UNL1       -0.2285
     25 C         140.3008  145.7116  159.9699 C.ar    1  UNL1        0.1105
     26 N         140.5173  146.1894  156.0361 N.1     1  UNL1       -0.1908
     27 C         140.7855  145.6707  157.4177 C.1     1  UNL1        0.1020
     28 N         138.3844  139.0921  167.1611 N.pl3   1  UNL1       -0.2821
     29 H         137.6630  138.6484  167.6631 H       1  UNL1        0.1551
     30 C         138.4330  138.9850  165.6657 C.ar    1  UNL1        0.1526
     31 C         138.9120  137.7188  165.0196 C.ar    1  UNL1        0.1332
     32 N         138.9606  137.6118  163.5242 N.ar    1  UNL1       -0.2378
     33 C         138.5302  138.7710  162.6749 C.ar    1  UNL1        0.1196
     34 C         138.0513  140.0371  163.3210 C.ar    1  UNL1        0.1210
     35 N         138.0027  140.1441  164.8164 N.ar    1  UNL1       -0.2258
@<TRIPOS>BOND
     1    26    27    3
     2    27    20    1
     3    20    21   ar
     4    21    22   ar
     5    22    23   ar
     6    23    14    1
     7    14    15    1
     8    15    16    1
     9    16    17    1
    10    17    12    1
    11    12     1    1
    12     1     2   ar
    13     2     3   ar
    14     3    28    1
    15    28    30    1
    16    30    31   ar
    17    31    32   ar
    18    32    33   ar
    19    33    34   ar
    20    34    35   ar
    21     3     4   ar
    22     4     5   ar
    23     5     6   ar
    24     6     7    1
    25     7     8   am
    26     7     9    2
    27    17    18    1
    28    18    19    1
    29    23    24   ar
    30    24    25   ar
    31    25    20   ar
    32    19    14    1
    33     6     1   ar
    34    35    30   ar
    35    12    13    1
    36    28    29    1
    37     8    10    1
    38     8    11    1
@<TRIPOS>MOLECULE
*****
 35 38 0 0 0
SMALL
GASTEIGER

@<TRIPOS>ATOM
      1 C         140.3123  139.8950  167.2640 C.ar    1  UNL1        0.0533
      2 C         141.4210  139.4194  166.3726 C.ar    1  UNL1        0.0489
      3 C         142.7543  139.0622  166.9596 C.ar    1  UNL1        0.1345
      4 N         142.9790  139.1804  168.4380 N.ar    1  UNL1       -0.2288
      5 C         141.8703  139.6560  169.3294 C.ar    1  UNL1        0.1060
      6 C         140.5369  140.0133  168.7424 C.ar    1  UNL1        0.0854
      7 C         139.4282  140.4888  169.6338 C.2     1  UNL1        0.2455
      8 N         139.5954  141.7475  170.4324 N.am    1  UNL1       -0.3252
      9 O         138.1523  139.7057  169.7266 O.2     1  UNL1       -0.2703
     10 H         140.4328  142.2615  170.3715 H       1  UNL1        0.1453
     11 H         138.8677  142.0596  171.0174 H       1  UNL1        0.1453
     12 N         138.9789  140.2523  166.6771 N.pl3   1  UNL1       -0.3337
     13 H         138.1860  140.3132  167.2574 H       1  UNL1        0.1468
     14 N         138.6033  141.0459  162.2635 N.pl3   1  UNL1       -0.2931
     15 C         139.0591  142.1376  163.1858 C.3     1  UNL1        0.0939
     16 C         139.1843  141.8730  164.6569 C.3     1  UNL1        0.0410
     17 C         138.8537  140.5168  165.2059 C.3     1  UNL1        0.0724
     18 C         138.3980  139.4252  164.2837 C.3     1  UNL1        0.0410
     19 C         138.2728  139.6897  162.8125 C.3     1  UNL1        0.0939
     20 C         138.2277  141.8395  157.8500 C.ar    1  UNL1        0.0877
     21 C         137.8277  140.5063  158.4090 C.ar    1  UNL1        0.0147
     22 C         137.9529  140.2418  159.8802 C.ar    1  UNL1        0.0350
     23 C         138.4781  141.3104  160.7924 C.ar    1  UNL1        0.1317
     24 N         138.8782  142.6436  160.2334 N.ar    1  UNL1       -0.2285
     25 C         138.7530  142.9081  158.7622 C.ar    1  UNL1        0.1105
     26 N         137.9773  142.3686  154.9077 N.1     1  UNL1       -0.1908
     27 C         138.1025  142.1040  156.3789 C.1     1  UNL1        0.1020
     28 N         143.8631  138.5866  166.0682 N.pl3   1  UNL1       -0.2821
     29 H         144.5288  137.9465  166.4094 H       1  UNL1        0.1551
     30 C         143.9576  139.0863  164.6571 C.ar    1  UNL1        0.1526
     31 C         144.8857  140.2162  164.3222 C.ar    1  UNL1        0.1332
     32 N         144.9802  140.7160  162.9110 N.ar    1  UNL1       -0.2378
     33 C         144.1466  140.0858  161.8348 C.ar    1  UNL1        0.1196
     34 C         143.2186  138.9560  162.1698 C.ar    1  UNL1        0.1210
     35 N         143.1241  138.4563  163.5809 N.ar    1  UNL1       -0.2258
@<TRIPOS>BOND
     1    26    27    3
     2    27    20    1
     3    20    21   ar
     4    21    22   ar
     5    22    23   ar
     6    23    14    1
     7    14    15    1
     8    15    16    1
     9    16    17    1
    10    17    12    1
    11    12     1    1
    12     1     2   ar
    13     2     3   ar
    14     3    28    1
    15    28    30    1
    16    30    31   ar
    17    31    32   ar
    18    32    33   ar
    19    33    34   ar
    20    34    35   ar
    21     3     4   ar
    22     4     5   ar
    23     5     6   ar
    24     6     7    1
    25     7     8   am
    26     7     9    2
    27    17    18    1
    28    18    19    1
    29    23    24   ar
    30    24    25   ar
    31    25    20   ar
    32    19    14    1
    33     6     1   ar
    34    35    30   ar
    35    12    13    1
    36    28    29    1
    37     8    10    1
    38     8    11    1
@<TRIPOS>MOLECULE
*****
 35 38 0 0 0
SMALL
GASTEIGER

@<TRIPOS>ATOM
      1 C         141.8933  140.1594  167.6286 C.ar    1  UNL1        0.0533
      2 C         140.7012  139.8283  166.7804 C.ar    1  UNL1        0.0489
      3 C         139.3559  139.6424  167.4172 C.ar    1  UNL1        0.1345
      4 N         139.2027  139.7875  168.9023 N.ar    1  UNL1       -0.2288
      5 C         140.3947  140.1186  169.7505 C.ar    1  UNL1        0.1060
      6 C         141.7400  140.3045  169.1137 C.ar    1  UNL1        0.0854
      7 C         142.9320  140.6356  169.9619 C.2     1  UNL1        0.2455
      8 N         143.3576  139.7008  171.0550 N.am    1  UNL1       -0.3252
      9 O         143.6985  141.9014  169.7169 O.2     1  UNL1       -0.2703
     10 H         142.8545  138.8699  171.2158 H       1  UNL1        0.1453
     11 H         144.1399  139.9180  171.6117 H       1  UNL1        0.1453
     12 N         143.2386  140.3453  166.9917 N.pl3   1  UNL1       -0.3337
     13 H         144.0528  140.3188  167.5445 H       1  UNL1        0.1468
     14 N         143.5528  141.0244  162.5543 N.pl3   1  UNL1       -0.2931
     15 C         143.1910  142.1614  163.4633 C.3     1  UNL1        0.0939
     16 C         143.0862  141.9351  164.9424 C.3     1  UNL1        0.0410
     17 C         143.3433  140.5717  165.5126 C.3     1  UNL1        0.0724
     18 C         143.7051  139.4347  164.6036 C.3     1  UNL1        0.0410
     19 C         143.8098  139.6610  163.1245 C.3     1  UNL1        0.0939
     20 C         143.8670  141.7035  158.1170 C.ar    1  UNL1        0.0877
     21 C         143.8610  140.3066  158.6634 C.ar    1  UNL1        0.0147
     22 C         143.7563  140.0802  160.1425 C.ar    1  UNL1        0.0350
     23 C         143.6575  141.2508  161.0752 C.ar    1  UNL1        0.1317
     24 N         143.6635  142.6477  160.5288 N.ar    1  UNL1       -0.2285
     25 C         143.7682  142.8740  159.0497 C.ar    1  UNL1        0.1105
     26 N         144.0764  142.1562  155.1587 N.1     1  UNL1       -0.1908
     27 C         143.9717  141.9298  156.6379 C.1     1  UNL1        0.1020
     28 N         138.1638  139.3113  166.5690 N.pl3   1  UNL1       -0.2821
     29 H         137.2787  139.2008  166.9856 H       1  UNL1        0.1551
     30 C         138.3204  139.1487  165.0861 C.ar    1  UNL1        0.1526
     31 C         138.0319  140.3013  164.1706 C.ar    1  UNL1        0.1332
     32 N         138.1885  140.1387  162.6877 N.ar    1  UNL1       -0.2378
     33 C         138.6336  138.8233  162.1203 C.ar    1  UNL1        0.1196
     34 C         138.9221  137.6707  163.0359 C.ar    1  UNL1        0.1210
     35 N         138.7655  137.8334  164.5188 N.ar    1  UNL1       -0.2258
@<TRIPOS>BOND
     1    26    27    3
     2    27    20    1
     3    20    21   ar
     4    21    22   ar
     5    22    23   ar
     6    23    14    1
     7    14    15    1
     8    15    16    1
     9    16    17    1
    10    17    12    1
    11    12     1    1
    12     1     2   ar
    13     2     3   ar
    14     3    28    1
    15    28    30    1
    16    30    31   ar
    17    31    32   ar
    18    32    33   ar
    19    33    34   ar
    20    34    35   ar
    21     3     4   ar
    22     4     5   ar
    23     5     6   ar
    24     6     7    1
    25     7     8   am
    26     7     9    2
    27    17    18    1
    28    18    19    1
    29    23    24   ar
    30    24    25   ar
    31    25    20   ar
    32    19    14    1
    33     6     1   ar
    34    35    30   ar
    35    12    13    1
    36    28    29    1
    37     8    10    1
    38     8    11    1
@<TRIPOS>MOLECULE
*****
 35 38 0 0 0
SMALL
GASTEIGER

@<TRIPOS>ATOM
      1 C         140.3848  141.9341  167.1850 C.ar    1  UNL1        0.0533
      2 C         139.7944  140.8448  166.3395 C.ar    1  UNL1        0.0489
      3 C         139.0994  139.6849  166.9887 C.ar    1  UNL1        0.1345
      4 N         138.9948  139.6142  168.4834 N.ar    1  UNL1       -0.2288
      5 C         139.5852  140.7035  169.3289 C.ar    1  UNL1        0.1060
      6 C         140.2803  141.8635  168.6797 C.ar    1  UNL1        0.0854
      7 C         140.8707  142.9527  169.5251 C.2     1  UNL1        0.2455
      8 N         139.9745  143.9546  170.1908 N.am    1  UNL1       -0.3252
      9 O         142.3573  143.0401  169.7049 O.2     1  UNL1       -0.2703
     10 H         138.9988  143.8972  170.0728 H       1  UNL1        0.1453
     11 H         140.3621  144.6695  170.7458 H       1  UNL1        0.1453
     12 N         141.0798  143.0941  166.5358 N.pl3   1  UNL1       -0.3337
     13 H         141.6491  143.6906  167.0737 H       1  UNL1        0.1468
     14 N         140.5628  143.8473  162.1295 N.pl3   1  UNL1       -0.2931
     15 C         139.4484  144.1677  163.0810 C.3     1  UNL1        0.0939
     16 C         139.6207  143.9166  164.5497 C.3     1  UNL1        0.0410
     17 C         140.9075  143.3451  165.0670 C.3     1  UNL1        0.0724
     18 C         142.0219  143.0248  164.1155 C.3     1  UNL1        0.0410
     19 C         141.8496  143.2759  162.6468 C.3     1  UNL1        0.0939
     20 C         140.0458  144.6005  157.7232 C.ar    1  UNL1        0.0877
     21 C         141.0795  145.3627  158.4981 C.ar    1  UNL1        0.0147
     22 C         141.2518  145.1116  159.9669 C.ar    1  UNL1        0.0350
     23 C         140.3905  144.0984  160.6607 C.ar    1  UNL1        0.1317
     24 N         139.3568  143.3362  159.8858 N.ar    1  UNL1       -0.2285
     25 C         139.1845  143.5873  158.4170 C.ar    1  UNL1        0.1105
     26 N         139.7012  145.1027  154.7857 N.1     1  UNL1       -0.1908
     27 C         139.8735  144.8516  156.2544 C.1     1  UNL1        0.1020
     28 N         138.5089  138.5955  166.1432 N.pl3   1  UNL1       -0.2821
     29 H         137.7794  138.0377  166.4981 H       1  UNL1        0.1551
     30 C         139.0299  138.3562  164.7571 C.ar    1  UNL1        0.1526
     31 C         140.1708  137.4072  164.5382 C.ar    1  UNL1        0.1332
     32 N         140.6918  137.1679  163.1521 N.ar    1  UNL1       -0.2378
     33 C         140.0719  137.8775  161.9849 C.ar    1  UNL1        0.1196
     34 C         138.9311  138.8264  162.2039 C.ar    1  UNL1        0.1210
     35 N         138.4101  139.0658  163.5900 N.ar    1  UNL1       -0.2258
@<TRIPOS>BOND
     1    26    27    3
     2    27    20    1
     3    20    21   ar
     4    21    22   ar
     5    22    23   ar
     6    23    14    1
     7    14    15    1
     8    15    16    1
     9    16    17    1
    10    17    12    1
    11    12     1    1
    12     1     2   ar
    13     2     3   ar
    14     3    28    1
    15    28    30    1
    16    30    31   ar
    17    31    32   ar
    18    32    33   ar
    19    33    34   ar
    20    34    35   ar
    21     3     4   ar
    22     4     5   ar
    23     5     6   ar
    24     6     7    1
    25     7     8   am
    26     7     9    2
    27    17    18    1
    28    18    19    1
    29    23    24   ar
    30    24    25   ar
    31    25    20   ar
    32    19    14    1
    33     6     1   ar
    34    35    30   ar
    35    12    13    1
    36    28    29    1
    37     8    10    1
    38     8    11    1
@<TRIPOS>MOLECULE
*****
 35 38 0 0 0
SMALL
GASTEIGER

@<TRIPOS>ATOM
      1 C         139.8521  143.9077  159.1669 C.ar    1  UNL1        0.0533
      2 C         139.1930  142.5695  159.3250 C.ar    1  UNL1        0.0489
      3 C         138.7608  141.7984  158.1132 C.ar    1  UNL1        0.1345
      4 N         138.9877  142.3654  156.7432 N.ar    1  UNL1       -0.2288
      5 C         139.6468  143.7035  156.5850 C.ar    1  UNL1        0.1060
      6 C         140.0790  144.4747  157.7968 C.ar    1  UNL1        0.0854
      7 C         140.7380  145.8128  157.6387 C.2     1  UNL1        0.2455
      8 N         140.0253  146.9196  156.9196 N.am    1  UNL1       -0.3252
      9 O         142.1098  146.0441  158.1995 O.2     1  UNL1       -0.2703
     10 H         139.1249  146.7677  156.5515 H       1  UNL1        0.1453
     11 H         140.4579  147.7978  156.8158 H       1  UNL1        0.1453
     12 N         140.2842  144.6787  160.3787 N.pl3   1  UNL1       -0.3337
     13 H         140.6122  145.6021  160.2835 H       1  UNL1        0.1468
     14 N         140.0817  142.7715  164.4495 N.pl3   1  UNL1       -0.2931
     15 C         138.9623  143.6510  163.9768 C.3     1  UNL1        0.0939
     16 C         139.0299  144.2868  162.6199 C.3     1  UNL1        0.0410
     17 C         140.2167  144.0430  161.7357 C.3     1  UNL1        0.0724
     18 C         141.3361  143.1635  162.2084 C.3     1  UNL1        0.0410
     19 C         141.2685  142.5278  163.5653 C.3     1  UNL1        0.0939
     20 C         139.8791  140.8643  168.5203 C.ar    1  UNL1        0.0877
     21 C         140.4255  142.2530  168.3691 C.ar    1  UNL1        0.0147
     22 C         140.4930  142.8887  167.0121 C.ar    1  UNL1        0.0350
     23 C         140.0142  142.1358  165.8065 C.ar    1  UNL1        0.1317
     24 N         139.4678  140.7471  165.9577 N.ar    1  UNL1       -0.2285
     25 C         139.4003  140.1113  167.3147 C.ar    1  UNL1        0.1105
     26 N         139.7441  139.5928  171.2342 N.1     1  UNL1       -0.1908
     27 C         139.8116  140.2285  169.8773 C.1     1  UNL1        0.1020
     28 N         138.1017  140.4602  158.2713 N.pl3   1  UNL1       -0.2821
     29 H         137.4837  140.1310  157.5793 H       1  UNL1        0.1551
     30 C         138.3843  139.6237  159.4839 C.ar    1  UNL1        0.1526
     31 C         139.6173  138.7710  159.5361 C.ar    1  UNL1        0.1332
     32 N         139.8999  137.9344  160.7487 N.ar    1  UNL1       -0.2378
     33 C         138.9494  137.9506  161.9091 C.ar    1  UNL1        0.1196
     34 C         137.7164  138.8032  161.8568 C.ar    1  UNL1        0.1210
     35 N         137.4339  139.6398  160.6443 N.ar    1  UNL1       -0.2258
@<TRIPOS>BOND
     1    26    27    3
     2    27    20    1
     3    20    21   ar
     4    21    22   ar
     5    22    23   ar
     6    23    14    1
     7    14    15    1
     8    15    16    1
     9    16    17    1
    10    17    12    1
    11    12     1    1
    12     1     2   ar
    13     2     3   ar
    14     3    28    1
    15    28    30    1
    16    30    31   ar
    17    31    32   ar
    18    32    33   ar
    19    33    34   ar
    20    34    35   ar
    21     3     4   ar
    22     4     5   ar
    23     5     6   ar
    24     6     7    1
    25     7     8   am
    26     7     9    2
    27    17    18    1
    28    18    19    1
    29    23    24   ar
    30    24    25   ar
    31    25    20   ar
    32    19    14    1
    33     6     1   ar
    34    35    30   ar
    35    12    13    1
    36    28    29    1
    37     8    10    1
    38     8    11    1
@<TRIPOS>MOLECULE
*****
 35 38 0 0 0
SMALL
GASTEIGER

@<TRIPOS>ATOM
      1 C         141.3778  138.3081  159.2758 C.ar    1  UNL1        0.0533
      2 C         140.1393  139.0476  159.6873 C.ar    1  UNL1        0.0489
      3 C         139.0878  139.3746  158.6688 C.ar    1  UNL1        0.1345
      4 N         139.2748  138.9622  157.2388 N.ar    1  UNL1       -0.2288
      5 C         140.5132  138.2227  156.8273 C.ar    1  UNL1        0.1060
      6 C         141.5648  137.8956  157.8458 C.ar    1  UNL1        0.0854
      7 C         142.8032  137.1562  157.4343 C.2     1  UNL1        0.2455
      8 N         143.7405  137.7622  156.4322 N.am    1  UNL1       -0.3252
      9 O         143.1044  135.8107  158.0249 O.2     1  UNL1       -0.2703
     10 H         143.5428  138.6453  156.0445 H       1  UNL1        0.1453
     11 H         144.5533  137.2769  156.1621 H       1  UNL1        0.1453
     12 N         142.4293  137.9810  160.2943 N.pl3   1  UNL1       -0.3337
     13 H         143.2573  137.5257  160.0182 H       1  UNL1        0.1468
     14 N         141.7988  139.0809  164.6121 N.pl3   1  UNL1       -0.2931
     15 C         141.0575  137.9201  164.0178 C.3     1  UNL1        0.0939
     16 C         141.2677  137.5535  162.5786 C.3     1  UNL1        0.0410
     17 C         142.2191  138.3476  161.7336 C.3     1  UNL1        0.0724
     18 C         142.9604  139.5084  162.3278 C.3     1  UNL1        0.0410
     19 C         142.7502  139.8750  163.7670 C.3     1  UNL1        0.0939
     20 C         141.1683  140.1807  168.9298 C.ar    1  UNL1        0.0877
     21 C         139.9953  140.0933  167.9991 C.ar    1  UNL1        0.0147
     22 C         140.2054  139.7267  166.5599 C.ar    1  UNL1        0.0350
     23 C         141.5886  139.4475  166.0513 C.ar    1  UNL1        0.1317
     24 N         142.7617  139.5348  166.9820 N.ar    1  UNL1       -0.2285
     25 C         142.5515  139.9014  168.4212 C.ar    1  UNL1        0.1105
     26 N         140.7480  140.9139  171.8083 N.1     1  UNL1       -0.1908
     27 C         140.9582  140.5473  170.3690 C.1     1  UNL1        0.1020
     28 N         137.8493  140.1141  159.0803 N.pl3   1  UNL1       -0.2821
     29 H         137.0031  139.9624  158.6005 H       1  UNL1        0.1551
     30 C         137.9001  141.0848  160.2228 C.ar    1  UNL1        0.1526
     31 C         138.4119  142.4773  160.0016 C.ar    1  UNL1        0.1332
     32 N         138.4627  143.4480  161.1440 N.ar    1  UNL1       -0.2378
     33 C         138.0017  143.0261  162.5077 C.ar    1  UNL1        0.1196
     34 C         137.4899  141.6336  162.7289 C.ar    1  UNL1        0.1210
     35 N         137.4391  140.6629  161.5864 N.ar    1  UNL1       -0.2258
@<TRIPOS>BOND
     1    26    27    3
     2    27    20    1
     3    20    21   ar
     4    21    22   ar
     5    22    23   ar
     6    23    14    1
     7    14    15    1
     8    15    16    1
     9    16    17    1
    10    17    12    1
    11    12     1    1
    12     1     2   ar
    13     2     3   ar
    14     3    28    1
    15    28    30    1
    16    30    31   ar
    17    31    32   ar
    18    32    33   ar
    19    33    34   ar
    20    34    35   ar
    21     3     4   ar
    22     4     5   ar
    23     5     6   ar
    24     6     7    1
    25     7     8   am
    26     7     9    2
    27    17    18    1
    28    18    19    1
    29    23    24   ar
    30    24    25   ar
    31    25    20   ar
    32    19    14    1
    33     6     1   ar
    34    35    30   ar
    35    12    13    1
    36    28    29    1
    37     8    10    1
    38     8    11    1
@<TRIPOS>MOLECULE
*****
 35 38 0 0 0
SMALL
GASTEIGER

@<TRIPOS>ATOM
      1 C         138.6699  140.2897  158.2326 C.ar    1  UNL1        0.0533
      2 C         140.0774  139.8330  158.4787 C.ar    1  UNL1        0.0489
      3 C         141.1531  140.1474  157.4818 C.ar    1  UNL1        0.1345
      4 N         140.8214  140.9185  156.2387 N.ar    1  UNL1       -0.2288
      5 C         139.4140  141.3752  155.9925 C.ar    1  UNL1        0.1060
      6 C         138.3382  141.0608  156.9895 C.ar    1  UNL1        0.0854
      7 C         136.9308  141.5175  156.7433 C.2     1  UNL1        0.2455
      8 N         136.6557  142.9544  156.4121 N.am    1  UNL1       -0.3252
      9 O         135.7986  140.5373  156.8283 O.2     1  UNL1       -0.2703
     10 H         137.3988  143.5977  156.3563 H       1  UNL1        0.1453
     11 H         135.7319  143.2541  156.2506 H       1  UNL1        0.1453
     12 N         137.5942  139.9752  159.2295 N.pl3   1  UNL1       -0.3337
     13 H         136.6892  139.7420  158.9201 H       1  UNL1        0.1468
     14 N         138.5038  140.0978  163.6350 N.pl3   1  UNL1       -0.2931
     15 C         138.3065  138.7800  162.9463 C.3     1  UNL1        0.0939
     16 C         138.0033  138.7391  161.4778 C.3     1  UNL1        0.0410
     17 C         137.8974  140.0161  160.6980 C.3     1  UNL1        0.0724
     18 C         138.0947  141.3339  161.3867 C.3     1  UNL1        0.0410
     19 C         138.3979  141.3748  162.8552 C.3     1  UNL1        0.0939
     20 C         139.4134  140.2204  168.0404 C.ar    1  UNL1        0.0877
     21 C         138.4595  139.1968  167.4997 C.ar    1  UNL1        0.0147
     22 C         138.1563  139.1560  166.0312 C.ar    1  UNL1        0.0350
     23 C         138.8070  140.1387  165.1034 C.ar    1  UNL1        0.1317
     24 N         139.7609  141.1623  165.6441 N.ar    1  UNL1       -0.2285
     25 C         140.0641  141.2031  167.1126 C.ar    1  UNL1        0.1105
     26 N         140.0198  140.3021  170.9773 N.1     1  UNL1       -0.1908
     27 C         139.7166  140.2613  169.5088 C.1     1  UNL1        0.1020
     28 N         142.5606  139.6907  157.7279 N.pl3   1  UNL1       -0.2821
     29 H         143.1879  139.6011  156.9745 H       1  UNL1        0.1551
     30 C         143.0122  139.3705  159.1220 C.ar    1  UNL1        0.1526
     31 C         142.9045  137.9675  159.6417 C.ar    1  UNL1        0.1332
     32 N         143.3561  137.6473  161.0358 N.ar    1  UNL1       -0.2378
     33 C         143.9154  138.7302  161.9102 C.ar    1  UNL1        0.1196
     34 C         144.0230  140.1331  161.3906 C.ar    1  UNL1        0.1210
     35 N         143.5714  140.4533  159.9965 N.ar    1  UNL1       -0.2258
@<TRIPOS>BOND
     1    26    27    3
     2    27    20    1
     3    20    21   ar
     4    21    22   ar
     5    22    23   ar
     6    23    14    1
     7    14    15    1
     8    15    16    1
     9    16    17    1
    10    17    12    1
    11    12     1    1
    12     1     2   ar
    13     2     3   ar
    14     3    28    1
    15    28    30    1
    16    30    31   ar
    17    31    32   ar
    18    32    33   ar
    19    33    34   ar
    20    34    35   ar
    21     3     4   ar
    22     4     5   ar
    23     5     6   ar
    24     6     7    1
    25     7     8   am
    26     7     9    2
    27    17    18    1
    28    18    19    1
    29    23    24   ar
    30    24    25   ar
    31    25    20   ar
    32    19    14    1
    33     6     1   ar
    34    35    30   ar
    35    12    13    1
    36    28    29    1
    37     8    10    1
    38     8    11    1
@<TRIPOS>MOLECULE
*****
 35 38 0 0 0
SMALL
GASTEIGER

@<TRIPOS>ATOM
      1 C         140.6418  141.6136  167.4365 C.ar    1  UNL1        0.0533
      2 C         140.0426  140.5160  166.6080 C.ar    1  UNL1        0.0489
      3 C         139.0740  139.5524  167.2270 C.ar    1  UNL1        0.1345
      4 N         138.7044  139.6864  168.6746 N.ar    1  UNL1       -0.2288
      5 C         139.3034  140.7840  169.5031 C.ar    1  UNL1        0.1060
      6 C         140.2722  141.7476  168.8841 C.ar    1  UNL1        0.0854
      7 C         140.8712  142.8451  169.7126 C.2     1  UNL1        0.2455
      8 N         139.9800  143.8181  170.4260 N.am    1  UNL1       -0.3252
      9 O         142.3616  142.9696  169.8278 O.2     1  UNL1       -0.2703
     10 H         139.0018  143.7364  170.3503 H       1  UNL1        0.1453
     11 H         140.3732  144.5385  170.9698 H       1  UNL1        0.1453
     12 N         141.6104  142.5771  166.8175 N.pl3   1  UNL1       -0.3337
     13 H         141.9418  143.3445  167.3377 H       1  UNL1        0.1468
     14 N         143.0020  141.9602  162.5828 N.pl3   1  UNL1       -0.2931
     15 C         143.7100  141.2730  163.7125 C.3     1  UNL1        0.0939
     16 C         143.2462  141.4786  165.1241 C.3     1  UNL1        0.0410
     17 C         142.0743  142.3715  165.4059 C.3     1  UNL1        0.0724
     18 C         141.3662  143.0586  164.2762 C.3     1  UNL1        0.0410
     19 C         141.8301  142.8530  162.8646 C.3     1  UNL1        0.0939
     20 C         144.3935  141.3433  158.3480 C.ar    1  UNL1        0.0877
     21 C         143.7071  140.2295  159.0817 C.ar    1  UNL1        0.0147
     22 C         143.2433  140.4351  160.4933 C.ar    1  UNL1        0.0350
     23 C         143.4658  141.7545  161.1712 C.ar    1  UNL1        0.1317
     24 N         144.1522  142.8683  160.4375 N.ar    1  UNL1       -0.2285
     25 C         144.6161  142.6627  159.0259 C.ar    1  UNL1        0.1105
     26 N         145.3212  140.9320  155.5249 N.1     1  UNL1       -0.1908
     27 C         144.8574  141.1376  156.9364 C.1     1  UNL1        0.1020
     28 N         138.4748  138.4548  166.3985 N.pl3   1  UNL1       -0.2821
     29 H         137.8082  137.8476  166.7937 H       1  UNL1        0.1551
     30 C         138.8914  138.2824  164.9679 C.ar    1  UNL1        0.1526
     31 C         139.9916  137.3250  164.6172 C.ar    1  UNL1        0.1332
     32 N         140.4082  137.1526  163.1866 N.ar    1  UNL1       -0.2378
     33 C         139.7245  137.9376  162.1066 C.ar    1  UNL1        0.1196
     34 C         138.6243  138.8950  162.4572 C.ar    1  UNL1        0.1210
     35 N         138.2078  139.0674  163.8879 N.ar    1  UNL1       -0.2258
@<TRIPOS>BOND
     1    26    27    3
     2    27    20    1
     3    20    21   ar
     4    21    22   ar
     5    22    23   ar
     6    23    14    1
     7    14    15    1
     8    15    16    1
     9    16    17    1
    10    17    12    1
    11    12     1    1
    12     1     2   ar
    13     2     3   ar
    14     3    28    1
    15    28    30    1
    16    30    31   ar
    17    31    32   ar
    18    32    33   ar
    19    33    34   ar
    20    34    35   ar
    21     3     4   ar
    22     4     5   ar
    23     5     6   ar
    24     6     7    1
    25     7     8   am
    26     7     9    2
    27    17    18    1
    28    18    19    1
    29    23    24   ar
    30    24    25   ar
    31    25    20   ar
    32    19    14    1
    33     6     1   ar
    34    35    30   ar
    35    12    13    1
    36    28    29    1
    37     8    10    1
    38     8    11    1
