@<TRIPOS>MOLECULE
*****
 34 37 0 0 0
SMALL
GASTEIGER

@<TRIPOS>ATOM
      1 C         139.4898  142.1335  163.6579 C.2     1  UNL1        0.1397
      2 C         139.5572  142.0872  162.1602 C.2     1  UNL1        0.1355
      3 N         140.4524  141.0942  161.4800 N.pl3   1  UNL1       -0.1998
      4 C         141.2802  140.1475  162.2977 C.2     1  UNL1        0.3442
      5 N         141.2128  140.1939  163.7954 N.2     1  UNL1       -0.0580
      6 C         140.3176  141.1869  164.4755 C.3     1  UNL1        0.2695
      7 H         140.4966  141.0637  160.4970 H       1  UNL1        0.2983
      8 C         140.2502  141.2332  165.9733 C.ar    1  UNL1        0.0415
      9 C         141.0160  142.2802  166.7265 C.ar    1  UNL1        0.0034
     10 C         140.9487  142.3266  168.2242 C.ar    1  UNL1        0.0295
     11 C         140.1155  141.3259  168.9689 C.ar    1  UNL1        0.1410
     12 F         140.0482  141.3722  170.4666 F       1  UNL1       -0.2041
     13 C         139.3497  140.2788  168.2157 C.ar    1  UNL1        0.0408
     14 C         139.4171  140.2325  166.7179 C.ar    1  UNL1        0.0603
     15 CL        138.6513  139.1855  165.9648 Cl      1  UNL1       -0.0824
     16 C         142.1754  139.1545  161.6175 C.ar    1  UNL1        0.1931
     17 N         141.9128  138.4888  160.2993 N.ar    1  UNL1       -0.2297
     18 C         143.0654  137.5757  160.0033 C.ar    1  UNL1        0.1067
     19 C         144.0405  137.6771  161.1386 C.ar    1  UNL1        0.0577
     20 S         143.4904  138.6528  162.1363 S.2     1  UNL1       -0.0586
     21 C         138.5946  143.1265  164.3380 C.2     1  UNL1        0.3448
     22 O         137.1671  142.7715  164.6317 O.2     1  UNL1       -0.2450
     23 C         138.6028  145.1651  165.9486 C.3     1  UNL1        0.2559
     24 O         139.1269  144.4746  164.7245 O.3     1  UNL1       -0.4414
     25 C         138.7294  143.0339  161.3425 C.3     1  UNL1        0.1407
     26 N         139.2691  143.5819  160.0547 N.3     1  UNL1       -0.2584
     27 C         138.9319  142.9130  158.7551 C.3     1  UNL1        0.1052
     28 C         139.4716  143.4611  157.4673 C.3     1  UNL1        0.1595
     29 O         140.3485  144.6780  157.4791 O.3     1  UNL1       -0.3505
     30 C         140.6857  145.3469  158.7787 C.3     1  UNL1        0.1637
     31 C         140.1460  144.7988  160.0665 C.3     1  UNL1        0.1247
     32 C         140.4832  145.4677  161.3661 C.2     1  UNL1        0.0673
     33 O         139.7366  146.6969  161.7928 O.co2   1  UNL1       -0.5477
     34 O         141.5668  144.9076  162.2389 O.co2   1  UNL1       -0.5477
@<TRIPOS>UNITY_ATOM_ATTR
33 1
charge -1
@<TRIPOS>BOND
     1    23    24    1
     2    24    21    1
     3    21    22    2
     4    21     1    1
     5     1     2    2
     6     2    25    1
     7    25    26    1
     8    26    27    1
     9    27    28    1
    10    28    29    1
    11    29    30    1
    12    30    31    1
    13    31    32    1
    14    32    33   ar
    15    32    34   ar
    16     2     3    1
    17     3     4    1
    18     4    16    1
    19    16    17   ar
    20    17    18   ar
    21    18    19   ar
    22    19    20   ar
    23     4     5    2
    24     5     6    1
    25     6     8    1
    26     8     9   ar
    27     9    10   ar
    28    10    11   ar
    29    11    12    1
    30    11    13   ar
    31    13    14   ar
    32    14    15    1
    33     6     1    1
    34    14     8   ar
    35    31    26    1
    36    20    16   ar
    37     3     7    1
@<TRIPOS>MOLECULE
*****
 34 37 0 0 0
SMALL
GASTEIGER

@<TRIPOS>ATOM
      1 C         140.7886  139.7436  164.2329 C.2     1  UNL1        0.1397
      2 C         140.7504  139.8541  162.7375 C.2     1  UNL1        0.1355
      3 N         140.5739  141.1950  162.0888 N.pl3   1  UNL1       -0.1998
      4 C         140.4355  142.4254  162.9355 C.2     1  UNL1        0.3442
      5 N         140.4737  142.3149  164.4309 N.2     1  UNL1       -0.0580
      6 C         140.6502  140.9740  165.0796 C.3     1  UNL1        0.2695
      7 H         140.5488  141.2675  161.1073 H       1  UNL1        0.2983
      8 C         140.6884  140.8635  166.5751 C.ar    1  UNL1        0.0415
      9 C         139.4975  140.3353  167.3188 C.ar    1  UNL1        0.0034
     10 C         139.5356  140.2248  168.8142 C.ar    1  UNL1        0.0295
     11 C         140.7646  140.6425  169.5660 C.ar    1  UNL1        0.1410
     12 F         140.8027  140.5320  171.0614 F       1  UNL1       -0.2041
     13 C         141.9554  141.1707  168.8224 C.ar    1  UNL1        0.0408
     14 C         141.9173  141.2812  167.3269 C.ar    1  UNL1        0.0603
     15 CL        143.1081  141.8094  166.5833 Cl      1  UNL1       -0.0824
     16 C         140.2590  143.7663  162.2868 C.ar    1  UNL1        0.1931
     17 N         140.7273  144.1504  160.9146 N.ar    1  UNL1       -0.2297
     18 C         140.3409  145.5800  160.6761 C.ar    1  UNL1        0.1067
     19 C         139.6338  146.0795  161.9010 C.ar    1  UNL1        0.0577
     20 S         139.5832  144.9586  162.8965 S.2     1  UNL1       -0.0586
     21 C         140.9651  138.4027  164.8816 C.2     1  UNL1        0.3448
     22 O         139.7827  137.4992  165.0701 O.2     1  UNL1       -0.2450
     23 C         143.5463  138.6979  164.8737 C.3     1  UNL1        0.2559
     24 O         142.3240  137.9652  165.3419 O.3     1  UNL1       -0.4414
     25 C         140.8888  138.6237  161.8907 C.3     1  UNL1        0.1407
     26 N         141.1675  138.7512  160.4224 N.3     1  UNL1       -0.2584
     27 C         140.0325  138.7622  159.4418 C.3     1  UNL1        0.1052
     28 C         140.3113  138.8897  157.9734 C.3     1  UNL1        0.1595
     29 O         141.7250  139.0062  157.4857 O.3     1  UNL1       -0.3505
     30 C         142.8600  138.9952  158.4664 C.3     1  UNL1        0.1637
     31 C         142.5813  138.8677  159.9347 C.3     1  UNL1        0.1247
     32 C         143.7162  138.8566  160.9154 C.2     1  UNL1        0.0673
     33 O         144.3014  140.1501  161.3999 O.co2   1  UNL1       -0.5477
     34 O         144.2660  137.5522  161.4116 O.co2   1  UNL1       -0.5477
@<TRIPOS>UNITY_ATOM_ATTR
33 1
charge -1
@<TRIPOS>BOND
     1    23    24    1
     2    24    21    1
     3    21    22    2
     4    21     1    1
     5     1     2    2
     6     2    25    1
     7    25    26    1
     8    26    27    1
     9    27    28    1
    10    28    29    1
    11    29    30    1
    12    30    31    1
    13    31    32    1
    14    32    33   ar
    15    32    34   ar
    16     2     3    1
    17     3     4    1
    18     4    16    1
    19    16    17   ar
    20    17    18   ar
    21    18    19   ar
    22    19    20   ar
    23     4     5    2
    24     5     6    1
    25     6     8    1
    26     8     9   ar
    27     9    10   ar
    28    10    11   ar
    29    11    12    1
    30    11    13   ar
    31    13    14   ar
    32    14    15    1
    33     6     1    1
    34    14     8   ar
    35    31    26    1
    36    20    16   ar
    37     3     7    1
@<TRIPOS>MOLECULE
*****
 34 37 0 0 0
SMALL
GASTEIGER

@<TRIPOS>ATOM
      1 C         142.9461  140.3324  159.5324 C.2     1  UNL1        0.1397
      2 C         143.3038  139.3402  158.4659 C.2     1  UNL1        0.1355
      3 N         144.2898  139.7099  157.3977 N.pl3   1  UNL1       -0.1998
      4 C         144.9182  141.0719  157.3961 C.2     1  UNL1        0.3442
      5 N         144.5606  142.0641  158.4626 N.2     1  UNL1       -0.0580
      6 C         143.5745  141.6944  159.5308 C.3     1  UNL1        0.2695
      7 H         144.5246  139.0587  156.6978 H       1  UNL1        0.2983
      8 C         143.2168  142.6867  160.5973 C.ar    1  UNL1        0.0415
      9 C         142.0425  143.6005  160.4081 C.ar    1  UNL1        0.0034
     10 C         141.6848  144.5928  161.4745 C.ar    1  UNL1        0.0295
     11 C         142.5015  144.6713  162.7303 C.ar    1  UNL1        0.1410
     12 F         142.1438  145.6636  163.7968 F       1  UNL1       -0.2041
     13 C         143.6758  143.7575  162.9196 C.ar    1  UNL1        0.0408
     14 C         144.0335  142.7652  161.8530 C.ar    1  UNL1        0.0603
     15 CL        145.2078  141.8513  162.0423 Cl      1  UNL1       -0.0824
     16 C         145.9043  141.4417  156.3280 C.ar    1  UNL1        0.1931
     17 N         147.0948  142.3380  156.4991 N.ar    1  UNL1       -0.2297
     18 C         147.7993  142.4304  155.1780 C.ar    1  UNL1        0.1067
     19 C         147.0442  141.5910  154.1904 C.ar    1  UNL1        0.0577
     20 S         145.8731  140.9800  154.9011 S.2     1  UNL1       -0.0586
     21 C         141.9600  139.9626  160.6005 C.2     1  UNL1        0.3448
     22 O         140.4881  140.0497  160.3251 O.2     1  UNL1       -0.2450
     23 C         143.5985  138.5506  162.0399 C.3     1  UNL1        0.2559
     24 O         142.4458  139.5058  161.9441 O.3     1  UNL1       -0.4414
     25 C         142.6754  137.9781  158.4675 C.3     1  UNL1        0.1407
     26 N         141.7288  137.5875  157.3714 N.3     1  UNL1       -0.2584
     27 C         140.3047  138.0571  157.4076 C.3     1  UNL1        0.1052
     28 C         139.3581  137.6665  156.3114 C.3     1  UNL1        0.1595
     29 O         139.8357  136.8064  155.1791 O.3     1  UNL1       -0.3505
     30 C         141.2598  136.3368  155.1430 C.3     1  UNL1        0.1637
     31 C         142.2064  136.7274  156.2391 C.3     1  UNL1        0.1247
     32 C         143.6305  136.2578  156.2029 C.2     1  UNL1        0.0673
     33 O         144.7104  137.1751  155.7102 O.co2   1  UNL1       -0.5477
     34 O         143.9749  134.8711  156.6593 O.co2   1  UNL1       -0.5477
@<TRIPOS>UNITY_ATOM_ATTR
33 1
charge -1
@<TRIPOS>BOND
     1    23    24    1
     2    24    21    1
     3    21    22    2
     4    21     1    1
     5     1     2    2
     6     2    25    1
     7    25    26    1
     8    26    27    1
     9    27    28    1
    10    28    29    1
    11    29    30    1
    12    30    31    1
    13    31    32    1
    14    32    33   ar
    15    32    34   ar
    16     2     3    1
    17     3     4    1
    18     4    16    1
    19    16    17   ar
    20    17    18   ar
    21    18    19   ar
    22    19    20   ar
    23     4     5    2
    24     5     6    1
    25     6     8    1
    26     8     9   ar
    27     9    10   ar
    28    10    11   ar
    29    11    12    1
    30    11    13   ar
    31    13    14   ar
    32    14    15    1
    33     6     1    1
    34    14     8   ar
    35    31    26    1
    36    20    16   ar
    37     3     7    1
@<TRIPOS>MOLECULE
*****
 34 37 0 0 0
SMALL
GASTEIGER

@<TRIPOS>ATOM
      1 C         140.9359  140.3961  164.8191 C.2     1  UNL1        0.1397
      2 C         140.6541  140.2689  163.3513 C.2     1  UNL1        0.1355
      3 N         140.4480  141.4989  162.5178 N.pl3   1  UNL1       -0.1998
      4 C         140.5236  142.8560  163.1521 C.2     1  UNL1        0.3442
      5 N         140.8054  142.9832  164.6199 N.2     1  UNL1       -0.0580
      6 C         141.0115  141.7532  165.4534 C.3     1  UNL1        0.2695
      7 H         140.2631  141.4154  161.5544 H       1  UNL1        0.2983
      8 C         141.2932  141.8805  166.9212 C.ar    1  UNL1        0.0415
      9 C         140.2048  141.6175  167.9193 C.ar    1  UNL1        0.0034
     10 C         140.4865  141.7447  169.3871 C.ar    1  UNL1        0.0295
     11 C         141.8567  142.1349  169.8568 C.ar    1  UNL1        0.1410
     12 F         142.1383  142.2621  171.3246 F       1  UNL1       -0.2041
     13 C         142.9451  142.3978  168.8587 C.ar    1  UNL1        0.0408
     14 C         142.6633  142.2706  167.3909 C.ar    1  UNL1        0.0603
     15 CL        143.7517  142.5335  166.3927 Cl      1  UNL1       -0.0824
     16 C         140.3175  144.0860  162.3186 C.ar    1  UNL1        0.1931
     17 N         139.6532  145.3539  162.7671 N.ar    1  UNL1       -0.2297
     18 C         139.6646  146.3155  161.6160 C.ar    1  UNL1        0.1067
     19 C         140.3360  145.6420  160.4560 C.ar    1  UNL1        0.0577
     20 S         140.7395  144.2641  160.8903 S.2     1  UNL1       -0.0586
     21 C         141.1420  139.1661  165.6525 C.2     1  UNL1        0.3448
     22 O         139.9585  138.3920  166.1526 O.2     1  UNL1       -0.2450
     23 C         143.6821  139.1090  165.1101 C.3     1  UNL1        0.2559
     24 O         142.5316  138.7103  165.9860 O.3     1  UNL1       -0.4414
     25 C         140.5785  138.9117  162.7169 C.3     1  UNL1        0.1407
     26 N         140.6767  138.7739  161.2265 N.3     1  UNL1       -0.2584
     27 C         141.9986  138.4675  160.5871 C.3     1  UNL1        0.1052
     28 C         142.0968  138.3297  159.0967 C.3     1  UNL1        0.1595
     29 O         140.8732  138.4984  158.2456 O.3     1  UNL1       -0.3505
     30 C         139.5513  138.8048  158.8850 C.3     1  UNL1        0.1637
     31 C         139.4531  138.9426  160.3754 C.3     1  UNL1        0.1247
     32 C         138.1312  139.2491  161.0148 C.2     1  UNL1        0.0673
     33 O         137.2724  138.1339  161.5333 O.co2   1  UNL1       -0.5477
     34 O         137.6682  140.6707  161.1356 O.co2   1  UNL1       -0.5477
@<TRIPOS>UNITY_ATOM_ATTR
33 1
charge -1
@<TRIPOS>BOND
     1    23    24    1
     2    24    21    1
     3    21    22    2
     4    21     1    1
     5     1     2    2
     6     2    25    1
     7    25    26    1
     8    26    27    1
     9    27    28    1
    10    28    29    1
    11    29    30    1
    12    30    31    1
    13    31    32    1
    14    32    33   ar
    15    32    34   ar
    16     2     3    1
    17     3     4    1
    18     4    16    1
    19    16    17   ar
    20    17    18   ar
    21    18    19   ar
    22    19    20   ar
    23     4     5    2
    24     5     6    1
    25     6     8    1
    26     8     9   ar
    27     9    10   ar
    28    10    11   ar
    29    11    12    1
    30    11    13   ar
    31    13    14   ar
    32    14    15    1
    33     6     1    1
    34    14     8   ar
    35    31    26    1
    36    20    16   ar
    37     3     7    1
@<TRIPOS>MOLECULE
*****
 34 37 0 0 0
SMALL
GASTEIGER

@<TRIPOS>ATOM
      1 C         139.1278  141.3700  160.7897 C.2     1  UNL1        0.1397
      2 C         139.2369  140.7601  159.4237 C.2     1  UNL1        0.1355
      3 N         139.3357  141.6419  158.2143 N.pl3   1  UNL1       -0.1998
      4 C         139.3254  143.1336  158.3709 C.2     1  UNL1        0.3442
      5 N         139.2162  143.7436  159.7369 N.2     1  UNL1       -0.0580
      6 C         139.1174  142.8618  160.9463 C.3     1  UNL1        0.2695
      7 H         139.4073  141.2415  157.3177 H       1  UNL1        0.2983
      8 C         139.0083  143.4718  162.3124 C.ar    1  UNL1        0.0415
      9 C         137.6710  143.5716  162.9845 C.ar    1  UNL1        0.0034
     10 C         137.5618  144.1816  164.3505 C.ar    1  UNL1        0.0295
     11 C         138.7899  144.6918  165.0444 C.ar    1  UNL1        0.1410
     12 F         138.6807  145.3017  166.4104 F       1  UNL1       -0.2041
     13 C         140.1272  144.5919  164.3723 C.ar    1  UNL1        0.0408
     14 C         140.2363  143.9819  163.0063 C.ar    1  UNL1        0.0603
     15 CL        141.5736  143.8820  162.3342 Cl      1  UNL1       -0.0824
     16 C         139.4242  144.0154  157.1615 C.ar    1  UNL1        0.1931
     17 N         138.4924  144.0075  155.9860 N.ar    1  UNL1       -0.2297
     18 C         138.9644  145.0471  155.0133 C.ar    1  UNL1        0.1067
     19 C         140.1880  145.6976  155.5875 C.ar    1  UNL1        0.0577
     20 S         140.4721  145.0600  156.9152 S.2     1  UNL1       -0.0586
     21 C         139.0289  140.4882  161.9991 C.2     1  UNL1        0.3448
     22 O         137.6969  139.9461  162.4252 O.2     1  UNL1       -0.2450
     23 C         140.3435  140.4930  164.2401 C.3     1  UNL1        0.2559
     24 O         140.2622  140.1485  162.7824 O.3     1  UNL1       -0.4414
     25 C         139.2472  139.2683  159.2671 C.3     1  UNL1        0.1407
     26 N         140.5082  138.5657  158.8591 N.3     1  UNL1       -0.2584
     27 C         141.6286  138.4039  159.8432 C.3     1  UNL1        0.1052
     28 C         142.8896  137.7013  159.4352 C.3     1  UNL1        0.1595
     29 O         143.0300  137.1606  158.0431 O.3     1  UNL1       -0.3505
     30 C         141.9096  137.3224  157.0590 C.3     1  UNL1        0.1637
     31 C         140.6487  138.0249  157.4670 C.3     1  UNL1        0.1247
     32 C         139.5282  138.1867  156.4829 C.2     1  UNL1        0.0673
     33 O         138.6960  137.0014  156.0924 O.co2   1  UNL1       -0.5477
     34 O         139.2400  139.5337  155.8893 O.co2   1  UNL1       -0.5477
@<TRIPOS>UNITY_ATOM_ATTR
33 1
charge -1
@<TRIPOS>BOND
     1    23    24    1
     2    24    21    1
     3    21    22    2
     4    21     1    1
     5     1     2    2
     6     2    25    1
     7    25    26    1
     8    26    27    1
     9    27    28    1
    10    28    29    1
    11    29    30    1
    12    30    31    1
    13    31    32    1
    14    32    33   ar
    15    32    34   ar
    16     2     3    1
    17     3     4    1
    18     4    16    1
    19    16    17   ar
    20    17    18   ar
    21    18    19   ar
    22    19    20   ar
    23     4     5    2
    24     5     6    1
    25     6     8    1
    26     8     9   ar
    27     9    10   ar
    28    10    11   ar
    29    11    12    1
    30    11    13   ar
    31    13    14   ar
    32    14    15    1
    33     6     1    1
    34    14     8   ar
    35    31    26    1
    36    20    16   ar
    37     3     7    1
@<TRIPOS>MOLECULE
*****
 34 37 0 0 0
SMALL
GASTEIGER

@<TRIPOS>ATOM
      1 C         142.0937  140.4564  164.2736 C.2     1  UNL1        0.1397
      2 C         141.9894  140.4689  162.7773 C.2     1  UNL1        0.1355
      3 N         141.5158  141.7033  162.0688 N.pl3   1  UNL1       -0.1998
      4 C         141.1464  142.9251  162.8565 C.2     1  UNL1        0.3442
      5 N         141.2507  142.9126  164.3528 N.2     1  UNL1       -0.0580
      6 C         141.7244  141.6783  165.0613 C.3     1  UNL1        0.2695
      7 H         141.4473  141.7115  161.0867 H       1  UNL1        0.2983
      8 C         141.8286  141.6658  166.5577 C.ar    1  UNL1        0.0415
      9 C         143.0624  142.1936  167.2279 C.ar    1  UNL1        0.0034
     10 C         143.1668  142.1811  168.7242 C.ar    1  UNL1        0.0295
     11 C         142.0373  141.6409  169.5503 C.ar    1  UNL1        0.1410
     12 F         142.1416  141.6285  171.0466 F       1  UNL1       -0.2041
     13 C         140.8035  141.1131  168.8801 C.ar    1  UNL1        0.0408
     14 C         140.6992  141.1256  167.3838 C.ar    1  UNL1        0.0603
     15 CL        139.4654  140.5978  166.7135 Cl      1  UNL1       -0.0824
     16 C         140.6727  144.1595  162.1480 C.ar    1  UNL1        0.1931
     17 N         139.9502  145.3142  162.7761 N.ar    1  UNL1       -0.2297
     18 C         139.6693  146.3242  161.7033 C.ar    1  UNL1        0.1067
     19 C         140.2183  145.7937  160.4121 C.ar    1  UNL1        0.0577
     20 S         140.8384  144.4559  160.6869 S.2     1  UNL1       -0.0586
     21 C         142.5674  139.2221  164.9821 C.2     1  UNL1        0.3448
     22 O         141.5935  138.1342  165.3258 O.2     1  UNL1       -0.2450
     23 C         145.0774  139.5923  164.4227 C.3     1  UNL1        0.2559
     24 O         144.0149  139.0755  165.3469 O.3     1  UNL1       -0.4414
     25 C         142.3588  139.2470  161.9894 C.3     1  UNL1        0.1407
     26 N         141.7981  139.0443  160.6130 N.3     1  UNL1       -0.2584
     27 C         142.6634  139.2736  159.4094 C.3     1  UNL1        0.1052
     28 C         142.1027  139.0708  158.0330 C.3     1  UNL1        0.1595
     29 O         140.6767  138.6387  157.8602 O.3     1  UNL1       -0.3505
     30 C         139.8114  138.4094  159.0638 C.3     1  UNL1        0.1637
     31 C         140.3721  138.6122  160.4402 C.3     1  UNL1        0.1247
     32 C         139.5068  138.3829  161.6438 C.2     1  UNL1        0.0673
     33 O         138.3460  139.2927  161.9173 O.co2   1  UNL1       -0.5477
     34 O         139.8023  137.2438  162.5739 O.co2   1  UNL1       -0.5477
@<TRIPOS>UNITY_ATOM_ATTR
33 1
charge -1
@<TRIPOS>BOND
     1    23    24    1
     2    24    21    1
     3    21    22    2
     4    21     1    1
     5     1     2    2
     6     2    25    1
     7    25    26    1
     8    26    27    1
     9    27    28    1
    10    28    29    1
    11    29    30    1
    12    30    31    1
    13    31    32    1
    14    32    33   ar
    15    32    34   ar
    16     2     3    1
    17     3     4    1
    18     4    16    1
    19    16    17   ar
    20    17    18   ar
    21    18    19   ar
    22    19    20   ar
    23     4     5    2
    24     5     6    1
    25     6     8    1
    26     8     9   ar
    27     9    10   ar
    28    10    11   ar
    29    11    12    1
    30    11    13   ar
    31    13    14   ar
    32    14    15    1
    33     6     1    1
    34    14     8   ar
    35    31    26    1
    36    20    16   ar
    37     3     7    1
@<TRIPOS>MOLECULE
*****
 34 37 0 0 0
SMALL
GASTEIGER

@<TRIPOS>ATOM
      1 C         140.8133  139.6373  163.9040 C.2     1  UNL1        0.1397
      2 C         140.8907  139.8501  162.4212 C.2     1  UNL1        0.1355
      3 N         140.7123  141.2259  161.8506 N.pl3   1  UNL1       -0.1998
      4 C         140.4567  142.3888  162.7628 C.2     1  UNL1        0.3442
      5 N         140.3794  142.1760  164.2456 N.2     1  UNL1       -0.0580
      6 C         140.5577  140.8003  164.8162 C.3     1  UNL1        0.2695
      7 H         140.7631  141.3655  160.8774 H       1  UNL1        0.2983
      8 C         140.4804  140.5875  166.2990 C.ar    1  UNL1        0.0415
      9 C         141.6637  140.9040  167.1648 C.ar    1  UNL1        0.0034
     10 C         141.5865  140.6913  168.6476 C.ar    1  UNL1        0.0295
     11 C         140.3258  140.1621  169.2647 C.ar    1  UNL1        0.1410
     12 F         140.2485  139.9494  170.7475 F       1  UNL1       -0.2041
     13 C         139.1425  139.8456  168.3989 C.ar    1  UNL1        0.0408
     14 C         139.2198  140.0583  166.9161 C.ar    1  UNL1        0.0603
     15 CL        138.0364  139.7419  166.0503 Cl      1  UNL1       -0.0824
     16 C         140.2783  143.7645  162.1922 C.ar    1  UNL1        0.1931
     17 N         139.8176  144.9780  162.9440 N.ar    1  UNL1       -0.2297
     18 C         139.7839  146.1318  161.9861 C.ar    1  UNL1        0.1067
     19 C         140.2239  145.6314  160.6422 C.ar    1  UNL1        0.0577
     20 S         140.5294  144.1684  160.7696 S.2     1  UNL1       -0.0586
     21 C         140.9917  138.2616  164.4745 C.2     1  UNL1        0.3448
     22 O         139.8261  137.3198  164.5397 O.2     1  UNL1       -0.2450
     23 C         143.5172  138.7425  164.8494 C.3     1  UNL1        0.2559
     24 O         142.3356  137.8277  164.9800 O.3     1  UNL1       -0.4414
     25 C         141.1463  138.6871  161.5089 C.3     1  UNL1        0.1407
     26 N         141.0486  138.8642  160.0226 N.3     1  UNL1       -0.2584
     27 C         139.7991  138.4572  159.2993 C.3     1  UNL1        0.1052
     28 C         139.7015  138.6343  157.8130 C.3     1  UNL1        0.1595
     29 O         140.8532  139.2183  157.0500 O.3     1  UNL1       -0.3505
     30 C         142.1027  139.6253  157.7733 C.3     1  UNL1        0.1637
     31 C         142.2004  139.4483  159.2595 C.3     1  UNL1        0.1247
     32 C         143.4499  139.8553  159.9828 C.2     1  UNL1        0.0673
     33 O         144.4970  138.8309  160.3059 O.co2   1  UNL1       -0.5477
     34 O         143.6524  141.2866  160.3830 O.co2   1  UNL1       -0.5477
@<TRIPOS>UNITY_ATOM_ATTR
33 1
charge -1
@<TRIPOS>BOND
     1    23    24    1
     2    24    21    1
     3    21    22    2
     4    21     1    1
     5     1     2    2
     6     2    25    1
     7    25    26    1
     8    26    27    1
     9    27    28    1
    10    28    29    1
    11    29    30    1
    12    30    31    1
    13    31    32    1
    14    32    33   ar
    15    32    34   ar
    16     2     3    1
    17     3     4    1
    18     4    16    1
    19    16    17   ar
    20    17    18   ar
    21    18    19   ar
    22    19    20   ar
    23     4     5    2
    24     5     6    1
    25     6     8    1
    26     8     9   ar
    27     9    10   ar
    28    10    11   ar
    29    11    12    1
    30    11    13   ar
    31    13    14   ar
    32    14    15    1
    33     6     1    1
    34    14     8   ar
    35    31    26    1
    36    20    16   ar
    37     3     7    1
@<TRIPOS>MOLECULE
*****
 34 37 0 0 0
SMALL
GASTEIGER

@<TRIPOS>ATOM
      1 C         139.6779  141.2047  161.0457 C.2     1  UNL1        0.1397
      2 C         139.8437  140.4959  159.7342 C.2     1  UNL1        0.1355
      3 N         139.4877  141.1931  158.4546 N.pl3   1  UNL1       -0.1998
      4 C         138.9659  142.5990  158.4865 C.2     1  UNL1        0.3442
      5 N         138.8000  143.3077  159.7980 N.2     1  UNL1       -0.0580
      6 C         139.1560  142.6106  161.0776 C.3     1  UNL1        0.2695
      7 H         139.5966  140.7279  157.5938 H       1  UNL1        0.2983
      8 C         138.9901  143.3194  162.3892 C.ar    1  UNL1        0.0415
      9 C         137.6883  143.2323  163.1294 C.ar    1  UNL1        0.0034
     10 C         137.5224  143.9410  164.4408 C.ar    1  UNL1        0.0295
     11 C         138.6582  144.7370  165.0122 C.ar    1  UNL1        0.1410
     12 F         138.4923  145.4458  166.3237 F       1  UNL1       -0.2041
     13 C         139.9600  144.8242  164.2720 C.ar    1  UNL1        0.0408
     14 C         140.1259  144.1154  162.9604 C.ar    1  UNL1        0.0603
     15 CL        141.4276  144.2025  162.2202 Cl      1  UNL1       -0.0824
     16 C         138.6099  143.2961  157.2070 C.ar    1  UNL1        0.1931
     17 N         137.3523  143.0960  156.4143 N.ar    1  UNL1       -0.2297
     18 C         137.4141  143.9920  155.2128 C.ar    1  UNL1        0.1067
     19 C         138.7100  144.7458  155.2630 C.ar    1  UNL1        0.0577
     20 S         139.4490  144.3157  156.4954 S.2     1  UNL1       -0.0586
     21 C         140.0338  140.5076  162.3252 C.2     1  UNL1        0.3448
     22 O         141.4069  140.6648  162.9081 O.2     1  UNL1       -0.2450
     23 C         138.6594  139.9283  164.4525 C.3     1  UNL1        0.2559
     24 O         139.0167  139.6532  163.0219 O.3     1  UNL1       -0.4414
     25 C         140.3656  139.0900  159.7022 C.3     1  UNL1        0.1407
     26 N         140.9133  138.5221  158.4264 N.3     1  UNL1       -0.2584
     27 C         140.0189  137.7452  157.5064 C.3     1  UNL1        0.1052
     28 C         140.5667  137.1773  156.2306 C.3     1  UNL1        0.1595
     29 O         142.0088  137.3864  155.8749 O.3     1  UNL1       -0.3505
     30 C         142.9032  138.1634  156.7949 C.3     1  UNL1        0.1637
     31 C         142.3555  138.7312  158.0706 C.3     1  UNL1        0.1247
     32 C         143.2499  139.5081  158.9906 C.2     1  UNL1        0.0673
     33 O         144.0543  138.7929  160.0354 O.co2   1  UNL1       -0.5477
     34 O         143.3399  141.0002  158.8659 O.co2   1  UNL1       -0.5477
@<TRIPOS>UNITY_ATOM_ATTR
33 1
charge -1
@<TRIPOS>BOND
     1    23    24    1
     2    24    21    1
     3    21    22    2
     4    21     1    1
     5     1     2    2
     6     2    25    1
     7    25    26    1
     8    26    27    1
     9    27    28    1
    10    28    29    1
    11    29    30    1
    12    30    31    1
    13    31    32    1
    14    32    33   ar
    15    32    34   ar
    16     2     3    1
    17     3     4    1
    18     4    16    1
    19    16    17   ar
    20    17    18   ar
    21    18    19   ar
    22    19    20   ar
    23     4     5    2
    24     5     6    1
    25     6     8    1
    26     8     9   ar
    27     9    10   ar
    28    10    11   ar
    29    11    12    1
    30    11    13   ar
    31    13    14   ar
    32    14    15    1
    33     6     1    1
    34    14     8   ar
    35    31    26    1
    36    20    16   ar
    37     3     7    1
@<TRIPOS>MOLECULE
*****
 34 37 0 0 0
SMALL
GASTEIGER

@<TRIPOS>ATOM
      1 C         140.4150  141.2623  160.7422 C.2     1  UNL1        0.1397
      2 C         140.6216  140.4630  159.4899 C.2     1  UNL1        0.1355
      3 N         139.6432  140.5755  158.3584 N.pl3   1  UNL1       -0.1998
      4 C         138.4583  141.4873  158.4793 C.2     1  UNL1        0.3442
      5 N         138.2518  142.2866  159.7316 N.2     1  UNL1       -0.0580
      6 C         139.2301  142.1741  160.8631 C.3     1  UNL1        0.2695
      7 H         139.7788  140.0508  157.5365 H       1  UNL1        0.2983
      8 C         139.0235  142.9735  162.1155 C.ar    1  UNL1        0.0415
      9 C         139.7737  144.2564  162.3187 C.ar    1  UNL1        0.0034
     10 C         139.5672  145.0557  163.5710 C.ar    1  UNL1        0.0295
     11 C         138.6103  144.5722  164.6202 C.ar    1  UNL1        0.1410
     12 F         138.4037  145.3716  165.8725 F       1  UNL1       -0.2041
     13 C         137.8600  143.2893  164.4169 C.ar    1  UNL1        0.0408
     14 C         138.0667  142.4899  163.1646 C.ar    1  UNL1        0.0603
     15 CL        137.3164  141.2071  162.9614 Cl      1  UNL1       -0.0824
     16 C         137.4800  141.5997  157.3478 C.ar    1  UNL1        0.1931
     17 N         136.4446  140.5812  156.9730 N.ar    1  UNL1       -0.2297
     18 C         135.6900  141.1025  155.7860 C.ar    1  UNL1        0.1067
     19 C         136.2591  142.4431  155.4272 C.ar    1  UNL1        0.0577
     20 S         137.3654  142.7504  156.3925 S.2     1  UNL1       -0.0586
     21 C         141.3933  141.1499  161.8737 C.2     1  UNL1        0.3448
     22 O         142.5631  142.0857  161.9496 O.2     1  UNL1       -0.2450
     23 C         140.1345  139.0602  162.7673 C.3     1  UNL1        0.2559
     24 O         141.2019  140.1016  162.9293 O.3     1  UNL1       -0.4414
     25 C         141.8065  139.5512  159.3690 C.3     1  UNL1        0.1407
     26 N         142.8387  139.7992  158.3093 N.3     1  UNL1       -0.2584
     27 C         143.8571  140.8849  158.4939 C.3     1  UNL1        0.1052
     28 C         144.8894  141.1330  157.4341 C.3     1  UNL1        0.1595
     29 O         144.9032  140.2953  156.1899 O.3     1  UNL1       -0.3505
     30 C         143.8848  139.2096  156.0054 C.3     1  UNL1        0.1637
     31 C         142.8525  138.9616  157.0650 C.3     1  UNL1        0.1247
     32 C         141.8341  137.8758  156.8805 C.2     1  UNL1        0.0673
     33 O         142.2346  136.4382  157.0323 O.co2   1  UNL1       -0.5477
     34 O         140.4153  138.2277  156.5442 O.co2   1  UNL1       -0.5477
@<TRIPOS>UNITY_ATOM_ATTR
33 1
charge -1
@<TRIPOS>BOND
     1    23    24    1
     2    24    21    1
     3    21    22    2
     4    21     1    1
     5     1     2    2
     6     2    25    1
     7    25    26    1
     8    26    27    1
     9    27    28    1
    10    28    29    1
    11    29    30    1
    12    30    31    1
    13    31    32    1
    14    32    33   ar
    15    32    34   ar
    16     2     3    1
    17     3     4    1
    18     4    16    1
    19    16    17   ar
    20    17    18   ar
    21    18    19   ar
    22    19    20   ar
    23     4     5    2
    24     5     6    1
    25     6     8    1
    26     8     9   ar
    27     9    10   ar
    28    10    11   ar
    29    11    12    1
    30    11    13   ar
    31    13    14   ar
    32    14    15    1
    33     6     1    1
    34    14     8   ar
    35    31    26    1
    36    20    16   ar
    37     3     7    1
