@<TRIPOS>MOLECULE
*****
 36 39 0 0 0
SMALL
GASTEIGER

@<TRIPOS>ATOM
      1 N         141.5877  139.8686  167.9349 N.3     1  UNL1       -0.2684
      2 C         140.0905  139.9600  167.9236 C.3     1  UNL1        0.1035
      3 C         139.3152  139.4235  166.7571 C.3     1  UNL1        0.1470
      4 C         138.5397  138.8869  165.5905 C.3     1  UNL1        0.1035
      5 N         139.2615  138.2588  164.4353 N.3     1  UNL1       -0.2673
      6 C         140.7587  138.1674  164.4466 C.3     1  UNL1        0.1035
      7 C         141.5341  138.7040  165.6131 C.3     1  UNL1        0.1470
      8 C         142.3094  139.2405  166.7796 C.3     1  UNL1        0.1035
      9 O         140.0369  138.7954  165.6018 O.3     1  UNL1       -0.3530
     10 C         142.3631  140.4052  169.1015 C.3     1  UNL1        0.0761
     11 C         143.0295  141.7456  169.0063 C.3     1  UNL1        0.0646
     12 C         142.8073  142.6098  167.8005 C.3     1  UNL1        0.2068
     13 O         143.9522  142.9294  166.8856 O.3     1  UNL1       -0.4754
     14 C         143.2373  143.4041  162.4682 C.ar    1  UNL1        0.0686
     15 C         143.8210  144.5368  163.2595 C.ar    1  UNL1        0.0134
     16 C         144.0593  144.3786  164.7319 C.ar    1  UNL1        0.0376
     17 C         143.7139  143.0876  165.4132 C.ar    1  UNL1        0.1386
     18 C         143.1302  141.9548  164.6219 C.ar    1  UNL1        0.0376
     19 C         142.8919  142.1131  163.1494 C.ar    1  UNL1        0.0134
     20 N         142.7608  143.7204  159.5232 N.1     1  UNL1       -0.1908
     21 C         142.9990  143.5622  160.9957 C.1     1  UNL1        0.1004
     22 C         138.4861  137.7222  163.2687 C.3     1  UNL1        0.0913
     23 C         138.4406  138.4905  161.9812 C.3     1  UNL1        0.1087
     24 N         137.7091  139.7983  161.9136 N.3     1  UNL1       -0.1779
     25 H         136.8179  139.6622  162.3906 H       1  UNL1        0.1488
     26 S         138.3276  141.0345  162.4960 S.O2    1  UNL1        0.0609
     27 O         139.6834  140.5593  162.0648 O.2     1  UNL1       -0.1530
     28 O         136.9718  141.5097  162.9271 O.2     1  UNL1       -0.1530
     29 C         138.9461  142.2708  163.0784 C.ar    1  UNL1        0.1315
     30 C         139.1893  142.3631  164.5557 C.ar    1  UNL1        0.0206
     31 C         139.8077  143.5993  165.1381 C.ar    1  UNL1        0.0014
     32 C         140.1830  144.7432  164.2433 C.ar    1  UNL1        0.0008
     33 C         139.9398  144.6508  162.7660 C.ar    1  UNL1        0.0116
     34 C         139.3214  143.4146  162.1836 C.ar    1  UNL1        0.0870
     35 C         139.0782  143.3223  160.7063 C.1     1  UNL1        0.1018
     36 N         138.8350  143.2299  159.2290 N.1     1  UNL1       -0.1908
@<TRIPOS>BOND
     1    20    21    3
     2    21    14    1
     3    14    15   ar
     4    15    16   ar
     5    16    17   ar
     6    17    13    1
     7    13    12    1
     8    12    11    1
     9    11    10    1
    10    10     1    1
    11     1     2    1
    12     2     3    1
    13     3     4    1
    14     4     5    1
    15     5    22    1
    16    22    23    1
    17    23    24    1
    18    24    26    1
    19    26    27    2
    20    26    28    2
    21    26    29    1
    22    29    30   ar
    23    30    31   ar
    24    31    32   ar
    25    32    33   ar
    26    33    34   ar
    27    34    35    1
    28    35    36    3
    29     5     6    1
    30     6     7    1
    31     7     8    1
    32     7     9    1
    33    17    18   ar
    34    18    19   ar
    35    19    14   ar
    36     8     1    1
    37     9     3    1
    38    34    29   ar
    39    24    25    1
@<TRIPOS>MOLECULE
*****
 36 39 0 0 0
SMALL
GASTEIGER

@<TRIPOS>ATOM
      1 N         141.6609  143.5590  160.6843 N.3     1  UNL1       -0.2684
      2 C         140.9643  142.2363  160.8076 C.3     1  UNL1        0.1035
      3 C         141.6156  141.1127  161.5581 C.3     1  UNL1        0.1470
      4 C         142.2669  139.9890  162.3086 C.3     1  UNL1        0.1035
      5 N         143.6149  140.1881  162.9358 N.3     1  UNL1       -0.2673
      6 C         144.3115  141.5108  162.8125 C.3     1  UNL1        0.1035
      7 C         143.6602  142.6344  162.0620 C.3     1  UNL1        0.1470
      8 C         143.0089  143.7580  161.3115 C.3     1  UNL1        0.1035
      9 O         142.9636  141.3118  162.1853 O.3     1  UNL1       -0.3530
     10 C         141.0096  144.6827  159.9338 C.3     1  UNL1        0.0761
     11 C         140.3016  145.7731  160.6819 C.3     1  UNL1        0.0646
     12 C         139.9236  145.5730  162.1197 C.3     1  UNL1        0.2068
     13 O         138.5750  145.0179  162.4704 O.3     1  UNL1       -0.4754
     14 C         138.2564  141.1307  164.7149 C.ar    1  UNL1        0.0686
     15 C         138.9990  142.2861  165.3177 C.ar    1  UNL1        0.0134
     16 C         139.1052  143.5818  164.5696 C.ar    1  UNL1        0.0376
     17 C         138.4688  143.7222  163.2185 C.ar    1  UNL1        0.1386
     18 C         137.7261  142.5667  162.6157 C.ar    1  UNL1        0.0376
     19 C         137.6199  141.2709  163.3639 C.ar    1  UNL1        0.0134
     20 N         138.0439  138.5392  166.2112 N.1     1  UNL1       -0.1908
     21 C         138.1501  139.8350  165.4630 C.1     1  UNL1        0.1004
     22 C         144.2662  139.0645  163.6863 C.3     1  UNL1        0.0913
     23 C         144.2801  139.0731  165.1862 C.3     1  UNL1        0.1087
     24 N         143.0995  138.5510  165.9502 N.3     1  UNL1       -0.1779
     25 H         143.4431  137.7953  166.5428 H       1  UNL1        0.1488
     26 S         142.3122  139.4714  166.8350 S.O2    1  UNL1        0.0609
     27 O         141.4641  139.8714  165.6643 O.2     1  UNL1       -0.1530
     28 O         143.1604  139.0714  168.0057 O.2     1  UNL1       -0.1530
     29 C         141.5249  140.3919  167.7200 C.ar    1  UNL1        0.1315
     30 C         140.4230  139.8459  168.5788 C.ar    1  UNL1        0.0206
     31 C         139.6357  140.7662  169.4637 C.ar    1  UNL1        0.0014
     32 C         139.9504  142.2326  169.4898 C.ar    1  UNL1        0.0008
     33 C         141.0523  142.7786  168.6310 C.ar    1  UNL1        0.0116
     34 C         141.8396  141.8582  167.7460 C.ar    1  UNL1        0.0870
     35 C         142.9416  142.4042  166.8872 C.1     1  UNL1        0.1018
     36 N         144.0435  142.9502  166.0284 N.1     1  UNL1       -0.1908
@<TRIPOS>BOND
     1    20    21    3
     2    21    14    1
     3    14    15   ar
     4    15    16   ar
     5    16    17   ar
     6    17    13    1
     7    13    12    1
     8    12    11    1
     9    11    10    1
    10    10     1    1
    11     1     2    1
    12     2     3    1
    13     3     4    1
    14     4     5    1
    15     5    22    1
    16    22    23    1
    17    23    24    1
    18    24    26    1
    19    26    27    2
    20    26    28    2
    21    26    29    1
    22    29    30   ar
    23    30    31   ar
    24    31    32   ar
    25    32    33   ar
    26    33    34   ar
    27    34    35    1
    28    35    36    3
    29     5     6    1
    30     6     7    1
    31     7     8    1
    32     7     9    1
    33    17    18   ar
    34    18    19   ar
    35    19    14   ar
    36     8     1    1
    37     9     3    1
    38    34    29   ar
    39    24    25    1
@<TRIPOS>MOLECULE
*****
 36 39 0 0 0
SMALL
GASTEIGER

@<TRIPOS>ATOM
      1 N         139.3029  137.5034  164.4681 N.3     1  UNL1       -0.2684
      2 C         138.7459  137.9498  163.1489 C.3     1  UNL1        0.1035
      3 C         139.6700  138.2329  162.0018 C.3     1  UNL1        0.1470
      4 C         140.5940  138.5160  160.8546 C.3     1  UNL1        0.1035
      5 N         142.0752  138.3526  161.0267 N.3     1  UNL1       -0.2673
      6 C         142.6322  137.9061  162.3460 C.3     1  UNL1        0.1035
      7 C         141.7081  137.6230  163.4931 C.3     1  UNL1        0.1470
      8 C         140.7840  137.3400  164.6402 C.3     1  UNL1        0.1035
      9 O         141.1511  138.0695  162.1739 O.3     1  UNL1       -0.3530
     10 C         138.3788  137.2202  165.6153 C.3     1  UNL1        0.0761
     11 C         138.0263  138.3121  166.5815 C.3     1  UNL1        0.0646
     12 C         138.0089  139.7409  166.1249 C.3     1  UNL1        0.2068
     13 O         139.2976  140.4889  165.9527 O.3     1  UNL1       -0.4754
     14 C         139.4502  144.1300  163.3128 C.ar    1  UNL1        0.0686
     15 C         140.1959  144.1154  164.6142 C.ar    1  UNL1        0.0134
     16 C         140.1451  142.9017  165.4942 C.ar    1  UNL1        0.0376
     17 C         139.3485  141.7025  165.0727 C.ar    1  UNL1        0.1386
     18 C         138.6028  141.7171  163.7713 C.ar    1  UNL1        0.0376
     19 C         138.6537  142.9309  162.8913 C.ar    1  UNL1        0.0134
     20 N         139.5520  146.5573  161.5528 N.1     1  UNL1       -0.1908
     21 C         139.5011  145.3436  162.4328 C.1     1  UNL1        0.1004
     22 C         142.9992  138.6357  159.8796 C.3     1  UNL1        0.0913
     23 C         143.9423  139.8004  159.9460 C.3     1  UNL1        0.1087
     24 N         143.4050  141.2007  159.9591 N.3     1  UNL1       -0.1779
     25 H         142.4042  141.1338  159.7737 H       1  UNL1        0.1488
     26 S         143.5627  142.0531  161.1832 S.O2    1  UNL1        0.0609
     27 O         142.1764  141.6823  161.6199 O.2     1  UNL1       -0.1530
     28 O         144.9489  142.4239  160.7465 O.2     1  UNL1       -0.1530
     29 C         143.7204  142.9055  162.4074 C.ar    1  UNL1        0.1315
     30 C         143.3076  144.3473  162.3756 C.ar    1  UNL1        0.0206
     31 C         143.4653  145.1997  163.5997 C.ar    1  UNL1        0.0014
     32 C         144.0358  144.6104  164.8555 C.ar    1  UNL1        0.0008
     33 C         144.4485  143.1687  164.8873 C.ar    1  UNL1        0.0116
     34 C         144.2908  142.3162  163.6632 C.ar    1  UNL1        0.0870
     35 C         144.7035  140.8745  163.6950 C.1     1  UNL1        0.1018
     36 N         145.1163  139.4327  163.7268 N.1     1  UNL1       -0.1908
@<TRIPOS>BOND
     1    20    21    3
     2    21    14    1
     3    14    15   ar
     4    15    16   ar
     5    16    17   ar
     6    17    13    1
     7    13    12    1
     8    12    11    1
     9    11    10    1
    10    10     1    1
    11     1     2    1
    12     2     3    1
    13     3     4    1
    14     4     5    1
    15     5    22    1
    16    22    23    1
    17    23    24    1
    18    24    26    1
    19    26    27    2
    20    26    28    2
    21    26    29    1
    22    29    30   ar
    23    30    31   ar
    24    31    32   ar
    25    32    33   ar
    26    33    34   ar
    27    34    35    1
    28    35    36    3
    29     5     6    1
    30     6     7    1
    31     7     8    1
    32     7     9    1
    33    17    18   ar
    34    18    19   ar
    35    19    14   ar
    36     8     1    1
    37     9     3    1
    38    34    29   ar
    39    24    25    1
@<TRIPOS>MOLECULE
*****
 36 39 0 0 0
SMALL
GASTEIGER

@<TRIPOS>ATOM
      1 N         139.2336  139.8526  159.7581 N.3     1  UNL1       -0.2684
      2 C         138.4337  139.4365  160.9569 C.3     1  UNL1        0.1035
      3 C         138.0661  140.4485  162.0012 C.3     1  UNL1        0.1470
      4 C         137.6985  141.4605  163.0457 C.3     1  UNL1        0.1035
      5 N         138.1308  142.8885  162.8913 N.3     1  UNL1       -0.2673
      6 C         138.9307  143.3046  161.6925 C.3     1  UNL1        0.1035
      7 C         139.2983  142.2926  160.6481 C.3     1  UNL1        0.1470
      8 C         139.6659  141.2807  159.6037 C.3     1  UNL1        0.1035
      9 O         138.4984  141.8766  161.8468 O.3     1  UNL1       -0.3530
     10 C         139.6012  138.8406  158.7137 C.3     1  UNL1        0.0761
     11 C         141.0376  138.4575  158.5133 C.3     1  UNL1        0.0646
     12 C         141.9481  138.3155  159.6969 C.3     1  UNL1        0.2068
     13 O         141.6016  137.3591  160.7992 O.3     1  UNL1       -0.4754
     14 C         142.4702  138.4477  165.0783 C.ar    1  UNL1        0.0686
     15 C         143.3965  138.8968  163.9872 C.ar    1  UNL1        0.0134
     16 C         143.1070  138.5340  162.5609 C.ar    1  UNL1        0.0376
     17 C         141.8911  137.7220  162.2255 C.ar    1  UNL1        0.1386
     18 C         140.9648  137.2728  163.3166 C.ar    1  UNL1        0.0376
     19 C         141.2544  137.6357  164.7429 C.ar    1  UNL1        0.0134
     20 N         143.0493  139.1734  167.9310 N.1     1  UNL1       -0.1908
     21 C         142.7597  138.8106  166.5046 C.1     1  UNL1        0.1004
     22 C         137.7632  143.9005  163.9357 C.3     1  UNL1        0.0913
     23 C         138.8014  144.3956  164.8986 C.3     1  UNL1        0.1087
     24 N         139.7441  143.4268  165.5486 N.3     1  UNL1       -0.1779
     25 H         139.2346  142.5503  165.6606 H       1  UNL1        0.1488
     26 S         141.0468  143.0890  164.8863 S.O2    1  UNL1        0.0609
     27 O         140.8064  141.6332  165.1560 O.2     1  UNL1       -0.1530
     28 O         141.2873  144.5448  164.6167 O.2     1  UNL1       -0.1530
     29 C         142.3496  142.7512  164.2240 C.ar    1  UNL1        0.1315
     30 C         142.4327  142.6737  162.7283 C.ar    1  UNL1        0.0206
     31 C         143.7354  142.3360  162.0659 C.ar    1  UNL1        0.0014
     32 C         144.9551  142.0756  162.8993 C.ar    1  UNL1        0.0008
     33 C         144.8721  142.1530  164.3950 C.ar    1  UNL1        0.0116
     34 C         143.5693  142.4908  165.0573 C.ar    1  UNL1        0.0870
     35 C         143.4863  142.5682  166.5530 C.1     1  UNL1        0.1018
     36 N         143.4033  142.6456  168.0487 N.1     1  UNL1       -0.1908
@<TRIPOS>BOND
     1    20    21    3
     2    21    14    1
     3    14    15   ar
     4    15    16   ar
     5    16    17   ar
     6    17    13    1
     7    13    12    1
     8    12    11    1
     9    11    10    1
    10    10     1    1
    11     1     2    1
    12     2     3    1
    13     3     4    1
    14     4     5    1
    15     5    22    1
    16    22    23    1
    17    23    24    1
    18    24    26    1
    19    26    27    2
    20    26    28    2
    21    26    29    1
    22    29    30   ar
    23    30    31   ar
    24    31    32   ar
    25    32    33   ar
    26    33    34   ar
    27    34    35    1
    28    35    36    3
    29     5     6    1
    30     6     7    1
    31     7     8    1
    32     7     9    1
    33    17    18   ar
    34    18    19   ar
    35    19    14   ar
    36     8     1    1
    37     9     3    1
    38    34    29   ar
    39    24    25    1
@<TRIPOS>MOLECULE
*****
 36 39 0 0 0
SMALL
GASTEIGER

@<TRIPOS>ATOM
      1 N         139.3567  137.9698  163.9868 N.3     1  UNL1       -0.2684
      2 C         140.6357  137.3894  163.4604 C.3     1  UNL1        0.1035
      3 C         141.1787  137.8462  162.1389 C.3     1  UNL1        0.1470
      4 C         141.7217  138.3031  160.8173 C.3     1  UNL1        0.1035
      5 N         140.9857  139.3403  160.0222 N.3     1  UNL1       -0.2673
      6 C         139.7065  139.9207  160.5486 C.3     1  UNL1        0.1035
      7 C         139.1636  139.4639  161.8701 C.3     1  UNL1        0.1470
      8 C         138.6206  139.0071  163.1916 C.3     1  UNL1        0.1035
      9 O         140.4426  138.8835  161.3437 O.3     1  UNL1       -0.3530
     10 C         138.8136  137.5130  165.3083 C.3     1  UNL1        0.0761
     11 C         138.1216  138.4893  166.2127 C.3     1  UNL1        0.0646
     12 C         138.8812  139.6487  166.7863 C.3     1  UNL1        0.2068
     13 O         140.2749  139.4500  167.3040 O.3     1  UNL1       -0.4754
     14 C         143.8019  140.7272  164.8184 C.ar    1  UNL1        0.0686
     15 C         143.7500  139.3416  165.3905 C.ar    1  UNL1        0.0134
     16 C         142.5743  138.9158  166.2190 C.ar    1  UNL1        0.0376
     17 C         141.4505  139.8757  166.4755 C.ar    1  UNL1        0.1386
     18 C         141.5024  141.2613  165.9033 C.ar    1  UNL1        0.0376
     19 C         142.6782  141.6871  165.0748 C.ar    1  UNL1        0.0134
     20 N         146.1533  141.5787  163.1613 N.1     1  UNL1       -0.1908
     21 C         144.9776  141.1530  163.9898 C.1     1  UNL1        0.1004
     22 C         141.5286  139.7972  158.7006 C.3     1  UNL1        0.0913
     23 C         141.8665  141.2431  158.4880 C.3     1  UNL1        0.1087
     24 N         143.0461  141.8487  159.1893 N.3     1  UNL1       -0.1779
     25 H         143.5643  142.3794  158.4892 H       1  UNL1        0.1488
     26 S         142.8346  142.7648  160.3580 S.O2    1  UNL1        0.0609
     27 O         142.8416  143.9459  159.4335 O.2     1  UNL1       -0.1530
     28 O         142.8276  141.5836  161.2826 O.2     1  UNL1       -0.1530
     29 C         142.6231  143.6809  161.5269 C.ar    1  UNL1        0.1315
     30 C         143.7907  144.1074  162.3664 C.ar    1  UNL1        0.0206
     31 C         143.5793  145.0234  163.5351 C.ar    1  UNL1        0.0014
     32 C         142.2002  145.5130  163.8644 C.ar    1  UNL1        0.0008
     33 C         141.0326  145.0865  163.0249 C.ar    1  UNL1        0.0116
     34 C         141.2441  144.1705  161.8561 C.ar    1  UNL1        0.0870
     35 C         140.0764  143.7440  161.0166 C.1     1  UNL1        0.1018
     36 N         138.9088  143.3175  160.1771 N.1     1  UNL1       -0.1908
@<TRIPOS>BOND
     1    20    21    3
     2    21    14    1
     3    14    15   ar
     4    15    16   ar
     5    16    17   ar
     6    17    13    1
     7    13    12    1
     8    12    11    1
     9    11    10    1
    10    10     1    1
    11     1     2    1
    12     2     3    1
    13     3     4    1
    14     4     5    1
    15     5    22    1
    16    22    23    1
    17    23    24    1
    18    24    26    1
    19    26    27    2
    20    26    28    2
    21    26    29    1
    22    29    30   ar
    23    30    31   ar
    24    31    32   ar
    25    32    33   ar
    26    33    34   ar
    27    34    35    1
    28    35    36    3
    29     5     6    1
    30     6     7    1
    31     7     8    1
    32     7     9    1
    33    17    18   ar
    34    18    19   ar
    35    19    14   ar
    36     8     1    1
    37     9     3    1
    38    34    29   ar
    39    24    25    1
@<TRIPOS>MOLECULE
*****
 36 39 0 0 0
SMALL
GASTEIGER

@<TRIPOS>ATOM
      1 N         143.1007  138.6732  165.6298 N.3     1  UNL1       -0.2684
      2 C         144.1929  139.1643  164.7267 C.3     1  UNL1        0.1035
      3 C         144.0828  138.9717  163.2432 C.3     1  UNL1        0.1470
      4 C         143.9727  138.7790  161.7596 C.3     1  UNL1        0.1035
      5 N         142.7703  138.0953  161.1793 N.3     1  UNL1       -0.2673
      6 C         141.6780  137.6042  162.0826 C.3     1  UNL1        0.1035
      7 C         141.7881  137.7968  163.5660 C.3     1  UNL1        0.1470
      8 C         141.8983  137.9894  165.0495 C.3     1  UNL1        0.1035
      9 O         142.8804  138.2879  162.6629 O.3     1  UNL1       -0.3530
     10 C         143.2108  138.8658  167.1134 C.3     1  UNL1        0.0761
     11 C         142.5339  140.0319  167.7705 C.3     1  UNL1        0.0646
     12 C         142.3934  141.3307  167.0332 C.3     1  UNL1        0.2068
     13 O         141.0657  142.0271  166.9870 O.3     1  UNL1       -0.4754
     14 C         140.1011  144.8083  163.5834 C.ar    1  UNL1        0.0686
     15 C         139.2032  144.7522  164.7837 C.ar    1  UNL1        0.0134
     16 C         139.5247  143.8252  165.9182 C.ar    1  UNL1        0.0376
     17 C         140.7442  142.9541  165.8525 C.ar    1  UNL1        0.1386
     18 C         141.6421  143.0102  164.6522 C.ar    1  UNL1        0.0376
     19 C         141.3206  143.9373  163.5177 C.ar    1  UNL1        0.0134
     20 N         139.4582  146.6624  161.3143 N.1     1  UNL1       -0.1908
     21 C         139.7796  145.7353  162.4489 C.1     1  UNL1        0.1004
     22 C         142.6602  137.9027  159.6959 C.3     1  UNL1        0.0913
     23 C         142.0849  138.9911  158.8389 C.3     1  UNL1        0.1087
     24 N         141.9864  140.3906  159.3696 N.3     1  UNL1       -0.1779
     25 H         141.9034  141.0070  158.5612 H       1  UNL1        0.1488
     26 S         140.8784  140.7595  160.3109 S.O2    1  UNL1        0.0609
     27 O         139.9014  140.0095  159.4548 O.2     1  UNL1       -0.1530
     28 O         141.8553  141.5094  161.1671 O.2     1  UNL1       -0.1530
     29 C         139.7703  141.1284  161.2523 C.ar    1  UNL1        0.1315
     30 C         139.5049  140.2863  162.4650 C.ar    1  UNL1        0.0206
     31 C         138.3969  140.6551  163.4063 C.ar    1  UNL1        0.0014
     32 C         137.5543  141.8660  163.1351 C.ar    1  UNL1        0.0008
     33 C         137.8197  142.7081  161.9224 C.ar    1  UNL1        0.0116
     34 C         138.9277  142.3393  160.9811 C.ar    1  UNL1        0.0870
     35 C         139.1931  143.1814  159.7684 C.1     1  UNL1        0.1018
     36 N         139.4585  144.0234  158.5558 N.1     1  UNL1       -0.1908
@<TRIPOS>BOND
     1    20    21    3
     2    21    14    1
     3    14    15   ar
     4    15    16   ar
     5    16    17   ar
     6    17    13    1
     7    13    12    1
     8    12    11    1
     9    11    10    1
    10    10     1    1
    11     1     2    1
    12     2     3    1
    13     3     4    1
    14     4     5    1
    15     5    22    1
    16    22    23    1
    17    23    24    1
    18    24    26    1
    19    26    27    2
    20    26    28    2
    21    26    29    1
    22    29    30   ar
    23    30    31   ar
    24    31    32   ar
    25    32    33   ar
    26    33    34   ar
    27    34    35    1
    28    35    36    3
    29     5     6    1
    30     6     7    1
    31     7     8    1
    32     7     9    1
    33    17    18   ar
    34    18    19   ar
    35    19    14   ar
    36     8     1    1
    37     9     3    1
    38    34    29   ar
    39    24    25    1
@<TRIPOS>MOLECULE
*****
 36 39 0 0 0
SMALL
GASTEIGER

@<TRIPOS>ATOM
      1 N         139.9355  141.6801  158.5818 N.3     1  UNL1       -0.2684
      2 C         140.9243  140.5950  158.8895 C.3     1  UNL1        0.1035
      3 C         140.6313  139.5979  159.9711 C.3     1  UNL1        0.1470
      4 C         140.3383  138.6008  161.0528 C.3     1  UNL1        0.1035
      5 N         139.0564  138.6888  161.8267 N.3     1  UNL1       -0.2673
      6 C         138.0675  139.7739  161.5190 C.3     1  UNL1        0.1035
      7 C         138.3605  140.7710  160.4374 C.3     1  UNL1        0.1470
      8 C         138.6536  141.7681  159.3558 C.3     1  UNL1        0.1035
      9 O         139.3494  139.6859  160.7450 O.3     1  UNL1       -0.3530
     10 C         140.2285  142.6773  157.5002 C.3     1  UNL1        0.0761
     11 C         139.6336  144.0526  157.5668 C.3     1  UNL1        0.0646
     12 C         140.2606  145.0996  158.4391 C.3     1  UNL1        0.2068
     13 O         139.8215  145.2487  159.8656 O.3     1  UNL1       -0.4754
     14 C         142.6731  144.2835  163.2102 C.ar    1  UNL1        0.0686
     15 C         141.5773  145.2852  163.4244 C.ar    1  UNL1        0.0134
     16 C         140.6268  145.6069  162.3096 C.ar    1  UNL1        0.0376
     17 C         140.7720  144.9270  160.9804 C.ar    1  UNL1        0.1386
     18 C         141.8678  143.9253  160.7662 C.ar    1  UNL1        0.0376
     19 C         142.8184  143.6035  161.8811 C.ar    1  UNL1        0.0134
     20 N         144.5743  143.6401  165.4399 N.1     1  UNL1       -0.1908
     21 C         143.6236  143.9618  164.3251 C.1     1  UNL1        0.1004
     22 C         138.7633  137.6917  162.9083 C.3     1  UNL1        0.0913
     23 C         139.0336  138.0394  164.3422 C.3     1  UNL1        0.1087
     24 N         140.0546  139.0848  164.6809 N.3     1  UNL1       -0.1779
     25 H         140.7575  139.0601  163.9422 H       1  UNL1        0.1488
     26 S         139.6384  140.5176  164.8349 S.O2    1  UNL1        0.0609
     27 O         138.6282  140.1132  165.8672 O.2     1  UNL1       -0.1530
     28 O         140.6486  140.9220  163.8025 O.2     1  UNL1       -0.1530
     29 C         139.2222  141.9505  164.9888 C.ar    1  UNL1        0.1315
     30 C         138.0738  142.4881  164.1874 C.ar    1  UNL1        0.0206
     31 C         137.6575  143.9209  164.3413 C.ar    1  UNL1        0.0014
     32 C         138.3897  144.8161  165.2965 C.ar    1  UNL1        0.0008
     33 C         139.5381  144.2785  166.0979 C.ar    1  UNL1        0.0116
     34 C         139.9543  142.8457  165.9440 C.ar    1  UNL1        0.0870
     35 C         141.1027  142.3081  166.7454 C.1     1  UNL1        0.1018
     36 N         142.2510  141.7704  167.5468 N.1     1  UNL1       -0.1908
@<TRIPOS>BOND
     1    20    21    3
     2    21    14    1
     3    14    15   ar
     4    15    16   ar
     5    16    17   ar
     6    17    13    1
     7    13    12    1
     8    12    11    1
     9    11    10    1
    10    10     1    1
    11     1     2    1
    12     2     3    1
    13     3     4    1
    14     4     5    1
    15     5    22    1
    16    22    23    1
    17    23    24    1
    18    24    26    1
    19    26    27    2
    20    26    28    2
    21    26    29    1
    22    29    30   ar
    23    30    31   ar
    24    31    32   ar
    25    32    33   ar
    26    33    34   ar
    27    34    35    1
    28    35    36    3
    29     5     6    1
    30     6     7    1
    31     7     8    1
    32     7     9    1
    33    17    18   ar
    34    18    19   ar
    35    19    14   ar
    36     8     1    1
    37     9     3    1
    38    34    29   ar
    39    24    25    1
@<TRIPOS>MOLECULE
*****
 36 39 0 0 0
SMALL
GASTEIGER

@<TRIPOS>ATOM
      1 N         143.0503  138.3812  159.2510 N.3     1  UNL1       -0.2684
      2 C         143.3583  139.8452  159.1432 C.3     1  UNL1        0.1035
      3 C         143.8797  140.5916  160.3352 C.3     1  UNL1        0.1470
      4 C         144.4011  141.3382  161.5272 C.3     1  UNL1        0.1035
      5 N         144.6145  140.6206  162.8270 N.3     1  UNL1       -0.2673
      6 C         144.3065  139.1565  162.9348 C.3     1  UNL1        0.1035
      7 C         143.7851  138.4100  161.7428 C.3     1  UNL1        0.1470
      8 C         143.2637  137.6636  160.5508 C.3     1  UNL1        0.1035
      9 O         144.0931  139.8741  161.6350 O.3     1  UNL1       -0.3530
     10 C         142.5288  137.6346  158.0590 C.3     1  UNL1        0.0761
     11 C         141.3513  138.1666  157.2971 C.3     1  UNL1        0.0646
     12 C         139.9681  138.0260  157.8602 C.3     1  UNL1        0.2068
     13 O         139.3121  139.1922  158.5379 O.3     1  UNL1       -0.4754
     14 C         138.6087  139.1077  162.9818 C.ar    1  UNL1        0.0686
     15 C         138.0109  140.2024  162.1485 C.ar    1  UNL1        0.0134
     16 C         138.2454  140.2306  160.6673 C.ar    1  UNL1        0.0376
     17 C         139.0777  139.1641  160.0192 C.ar    1  UNL1        0.1386
     18 C         139.6754  138.0694  160.8525 C.ar    1  UNL1        0.0376
     19 C         139.4409  138.0412  162.3338 C.ar    1  UNL1        0.0134
     20 N         138.1398  139.0513  165.9444 N.1     1  UNL1       -0.1908
     21 C         138.3742  139.0795  164.4631 C.1     1  UNL1        0.1004
     22 C         145.1359  141.3671  164.0190 C.3     1  UNL1        0.0913
     23 C         144.1799  142.0320  164.9646 C.3     1  UNL1        0.1087
     24 N         142.8385  141.4162  165.2313 N.3     1  UNL1       -0.1779
     25 H         142.7579  141.3125  166.2428 H       1  UNL1        0.1488
     26 S         141.5906  142.1062  164.7660 S.O2    1  UNL1        0.0609
     27 O         141.7781  143.1563  165.8205 O.2     1  UNL1       -0.1530
     28 O         141.4031  141.0561  163.7115 O.2     1  UNL1       -0.1530
     29 C         140.3426  142.7963  164.3007 C.ar    1  UNL1        0.1315
     30 C         139.0223  142.4629  164.9296 C.ar    1  UNL1        0.0206
     31 C         137.7744  143.1529  164.4644 C.ar    1  UNL1        0.0014
     32 C         137.8468  144.1763  163.3701 C.ar    1  UNL1        0.0008
     33 C         139.1671  144.5096  162.7411 C.ar    1  UNL1        0.0116
     34 C         140.4150  143.8196  163.2064 C.ar    1  UNL1        0.0870
     35 C         141.7353  144.1530  162.5774 C.1     1  UNL1        0.1018
     36 N         143.0557  144.4863  161.9484 N.1     1  UNL1       -0.1908
@<TRIPOS>BOND
     1    20    21    3
     2    21    14    1
     3    14    15   ar
     4    15    16   ar
     5    16    17   ar
     6    17    13    1
     7    13    12    1
     8    12    11    1
     9    11    10    1
    10    10     1    1
    11     1     2    1
    12     2     3    1
    13     3     4    1
    14     4     5    1
    15     5    22    1
    16    22    23    1
    17    23    24    1
    18    24    26    1
    19    26    27    2
    20    26    28    2
    21    26    29    1
    22    29    30   ar
    23    30    31   ar
    24    31    32   ar
    25    32    33   ar
    26    33    34   ar
    27    34    35    1
    28    35    36    3
    29     5     6    1
    30     6     7    1
    31     7     8    1
    32     7     9    1
    33    17    18   ar
    34    18    19   ar
    35    19    14   ar
    36     8     1    1
    37     9     3    1
    38    34    29   ar
    39    24    25    1
@<TRIPOS>MOLECULE
*****
 36 39 0 0 0
SMALL
GASTEIGER

@<TRIPOS>ATOM
      1 N         142.3552  140.1309  167.8459 N.3     1  UNL1       -0.2684
      2 C         142.6770  141.5722  167.5836 C.3     1  UNL1        0.1035
      3 C         143.3769  141.9659  166.3167 C.3     1  UNL1        0.1470
      4 C         144.0768  142.3596  165.0497 C.3     1  UNL1        0.1035
      5 N         144.4549  141.3118  164.0451 N.3     1  UNL1       -0.2673
      6 C         144.1330  139.8704  164.3074 C.3     1  UNL1        0.1035
      7 C         143.4331  139.4768  165.5743 C.3     1  UNL1        0.1470
      8 C         142.7332  139.0831  166.8413 C.3     1  UNL1        0.1035
      9 O         143.7549  140.9181  165.3121 O.3     1  UNL1       -0.3530
     10 C         141.6553  139.7372  169.1129 C.3     1  UNL1        0.0761
     11 C         140.2154  140.1034  169.3192 C.3     1  UNL1        0.0646
     12 C         139.2989  140.2368  168.1392 C.3     1  UNL1        0.2068
     13 O         138.7850  139.0098  167.4462 O.3     1  UNL1       -0.4754
     14 C         139.0203  138.6927  162.9636 C.ar    1  UNL1        0.0686
     15 C         139.6540  137.6402  163.8242 C.ar    1  UNL1        0.0134
     16 C         139.5756  137.7459  165.3184 C.ar    1  UNL1        0.0376
     17 C         138.8634  138.9041  165.9520 C.ar    1  UNL1        0.1386
     18 C         138.2296  139.9566  165.0914 C.ar    1  UNL1        0.0376
     19 C         138.3081  139.8508  163.5971 C.ar    1  UNL1        0.0134
     20 N         139.1771  138.4813  159.9751 N.1     1  UNL1       -0.1908
     21 C         139.0987  138.5869  161.4694 C.1     1  UNL1        0.1004
     22 C         145.1548  141.7054  162.7781 C.3     1  UNL1        0.0913
     23 C         144.3770  142.3162  161.6502 C.3     1  UNL1        0.1087
     24 N         143.0472  141.7428  161.2592 N.3     1  UNL1       -0.1779
     25 H         143.0183  140.7907  161.6241 H       1  UNL1        0.1488
     26 S         141.7813  142.4148  161.7018 S.O2    1  UNL1        0.0609
     27 O         142.0246  143.5208  160.7182 O.2     1  UNL1       -0.1530
     28 O         141.5381  141.3088  162.6854 O.2     1  UNL1       -0.1530
     29 C         140.5154  143.0867  162.1444 C.ar    1  UNL1        0.1315
     30 C         139.1867  142.5490  161.7023 C.ar    1  UNL1        0.0206
     31 C         137.9208  143.2209  162.1449 C.ar    1  UNL1        0.0014
     32 C         137.9836  144.4306  163.0296 C.ar    1  UNL1        0.0008
     33 C         139.3122  144.9683  163.4717 C.ar    1  UNL1        0.0116
     34 C         140.5781  144.2964  163.0291 C.ar    1  UNL1        0.0870
     35 C         141.9068  144.8341  163.4713 C.1     1  UNL1        0.1018
     36 N         143.2355  145.3719  163.9134 N.1     1  UNL1       -0.1908
@<TRIPOS>BOND
     1    20    21    3
     2    21    14    1
     3    14    15   ar
     4    15    16   ar
     5    16    17   ar
     6    17    13    1
     7    13    12    1
     8    12    11    1
     9    11    10    1
    10    10     1    1
    11     1     2    1
    12     2     3    1
    13     3     4    1
    14     4     5    1
    15     5    22    1
    16    22    23    1
    17    23    24    1
    18    24    26    1
    19    26    27    2
    20    26    28    2
    21    26    29    1
    22    29    30   ar
    23    30    31   ar
    24    31    32   ar
    25    32    33   ar
    26    33    34   ar
    27    34    35    1
    28    35    36    3
    29     5     6    1
    30     6     7    1
    31     7     8    1
    32     7     9    1
    33    17    18   ar
    34    18    19   ar
    35    19    14   ar
    36     8     1    1
    37     9     3    1
    38    34    29   ar
    39    24    25    1
