@<TRIPOS>MOLECULE
*****
 40 44 0 0 0
SMALL
GASTEIGER

@<TRIPOS>ATOM
      1 C         139.2684  141.3423  162.2122 C.2     1  UNL1        0.1077
      2 C         139.2267  141.0564  160.7403 C.2     1  UNL1        0.0757
      3 N         140.0577  140.0881  159.9517 N.am    1  UNL1       -0.2534
      4 C         139.7732  140.0343  158.4800 C.2     1  UNL1        0.2528
      5 O         138.7135  140.9157  157.8882 O.2     1  UNL1       -0.2696
      6 C         141.1356  139.1665  160.4404 C.3     1  UNL1        0.1025
      7 C         141.6487  138.9855  161.8382 C.3     1  UNL1        0.0390
      8 C         142.5316  138.3736  162.8851 C.3     1  UNL1        0.0061
      9 C         142.4797  138.0171  161.0497 C.3     1  UNL1        0.0061
     10 C         141.2107  139.6816  163.0927 C.2     1  UNL1       -0.0022
     11 C         140.1513  140.7304  163.2591 C.2     1  UNL1        0.0845
     12 N         140.0946  141.1057  164.7103 N.2     1  UNL1       -0.2493
     13 C         141.1189  140.2888  165.4408 C.2     1  UNL1        0.0654
     14 C         141.5125  140.2327  166.8871 C.3     1  UNL1        0.1022
     15 C         142.5960  139.2964  167.3336 C.2     1  UNL1        0.1236
     16 F         142.9897  139.2403  168.7800 F       1  UNL1       -0.2085
     17 C         143.2858  138.4162  166.3339 C.2     1  UNL1        0.0256
     18 C         142.8921  138.4723  164.8876 C.2     1  UNL1        0.0029
     19 C         141.8086  139.4086  164.4410 C.2     1  UNL1        0.0115
     20 C         140.5484  139.0990  157.5999 C.ar    1  UNL1        0.0541
     21 C         141.9292  139.4684  157.1453 C.ar    1  UNL1        0.0076
     22 C         142.7044  138.5332  156.2652 C.ar    1  UNL1        0.0370
     23 C         142.0986  137.2286  155.8399 C.ar    1  UNL1        0.1386
     24 C         140.7178  136.8591  156.2946 C.ar    1  UNL1        0.0370
     25 C         139.9426  137.7944  157.1746 C.ar    1  UNL1        0.0076
     26 O         142.8738  136.2933  154.9599 O.3     1  UNL1       -0.4740
     27 C         143.8899  135.3676  155.5603 C.3     1  UNL1        0.2226
     28 C         143.6284  134.7292  156.8923 C.3     1  UNL1        0.1202
     29 N         143.7337  133.2407  157.0442 N.3     1  UNL1       -0.2653
     30 C         142.7234  132.3466  156.3885 C.3     1  UNL1        0.1047
     31 C         142.8287  130.8579  156.5404 C.3     1  UNL1        0.1595
     32 O         143.9442  130.2636  157.3480 O.3     1  UNL1       -0.3508
     33 C         144.9545  131.1577  158.0037 C.3     1  UNL1        0.1595
     34 C         144.8492  132.6462  157.8518 C.3     1  UNL1        0.1047
     35 C         138.2989  142.3768  162.7020 C.2     1  UNL1        0.3438
     36 O         136.9362  141.9640  163.1736 O.2     1  UNL1       -0.2448
     37 O         138.6923  143.8242  162.7202 O.3     1  UNL1       -0.4491
     38 C         138.5210  144.7062  165.1580 C.3     1  UNL1        0.0473
     39 C         139.3427  144.4094  163.9387 C.3     1  UNL1        0.1694
     40 C         140.8147  144.6977  163.9378 C.3     1  UNL1        0.0473
@<TRIPOS>BOND
     1    38    39    1
     2    39    40    1
     3    39    37    1
     4    37    35    1
     5    35    36    2
     6    35     1    1
     7     1     2    2
     8     2     3    1
     9     3     4   am
    10     4     5    2
    11     4    20    1
    12    20    21   ar
    13    21    22   ar
    14    22    23   ar
    15    23    26    1
    16    26    27    1
    17    27    28    1
    18    28    29    1
    19    29    30    1
    20    30    31    1
    21    31    32    1
    22    32    33    1
    23    33    34    1
    24    23    24   ar
    25    24    25   ar
    26     3     6    1
    27     6     7    1
    28     7     8    1
    29     7     9    1
    30     7    10    1
    31    10    11    2
    32    11    12    1
    33    12    13    2
    34    13    14    1
    35    14    15    1
    36    15    16    1
    37    15    17    2
    38    17    18    1
    39    18    19    2
    40    11     1    1
    41    19    13    1
    42    25    20   ar
    43    19    10    1
    44    34    29    1
@<TRIPOS>MOLECULE
*****
 40 44 0 0 0
SMALL
GASTEIGER

@<TRIPOS>ATOM
      1 C         142.3135  143.4650  163.0522 C.2     1  UNL1        0.1077
      2 C         142.4903  143.5301  161.5641 C.2     1  UNL1        0.0757
      3 N         142.9232  142.4433  160.6252 N.am    1  UNL1       -0.2534
      4 C         143.0038  142.8277  159.1776 C.2     1  UNL1        0.2528
      5 O         142.6616  144.2248  158.7524 O.2     1  UNL1       -0.2696
      6 C         143.2861  141.0229  160.9426 C.3     1  UNL1        0.1025
      7 C         143.3059  140.3385  162.2772 C.3     1  UNL1        0.0390
      8 C         143.5183  139.1704  163.1941 C.3     1  UNL1        0.0061
      9 C         143.7388  139.2516  161.3384 C.3     1  UNL1        0.0061
     10 C         142.9675  140.9055  163.6242 C.2     1  UNL1       -0.0022
     11 C         142.5259  142.2969  163.9690 C.2     1  UNL1        0.0845
     12 N         142.3128  142.3612  165.4524 N.2     1  UNL1       -0.2493
     13 C         142.6228  141.0096  166.0244 C.2     1  UNL1        0.0654
     14 C         142.5888  140.4819  167.4280 C.3     1  UNL1        0.1022
     15 C         142.9595  139.0545  167.7017 C.2     1  UNL1        0.1236
     16 F         142.9255  138.5267  169.1055 F       1  UNL1       -0.2085
     17 C         143.3641  138.1548  166.5718 C.2     1  UNL1        0.0256
     18 C         143.3981  138.6825  165.1681 C.2     1  UNL1        0.0029
     19 C         143.0274  140.1099  164.8944 C.2     1  UNL1        0.0115
     20 C         143.4265  141.8149  158.1551 C.ar    1  UNL1        0.0541
     21 C         144.8335  141.8164  157.6350 C.ar    1  UNL1        0.0076
     22 C         145.2562  140.8036  156.6125 C.ar    1  UNL1        0.0370
     23 C         144.2720  139.7893  156.1101 C.ar    1  UNL1        0.1386
     24 C         142.8651  139.7878  156.6301 C.ar    1  UNL1        0.0370
     25 C         142.4423  140.8006  157.6527 C.ar    1  UNL1        0.0076
     26 O         144.6948  138.7765  155.0876 O.3     1  UNL1       -0.4740
     27 C         144.5119  137.3131  155.3612 C.3     1  UNL1        0.2226
     28 C         143.2420  136.6267  154.9533 C.3     1  UNL1        0.1202
     29 N         142.9089  135.2738  155.5088 N.3     1  UNL1       -0.2653
     30 C         141.8509  134.4347  154.8557 C.3     1  UNL1        0.1047
     31 C         141.5177  133.0817  155.4112 C.3     1  UNL1        0.1595
     32 O         142.2426  132.5680  156.6198 O.3     1  UNL1       -0.3508
     33 C         143.3006  133.4071  157.2729 C.3     1  UNL1        0.1595
     34 C         143.6338  134.7600  156.7174 C.3     1  UNL1        0.1047
     35 C         141.8650  144.7359  163.7106 C.2     1  UNL1        0.3438
     36 O         142.8661  145.8027  164.0420 O.2     1  UNL1       -0.2448
     37 O         140.4154  144.9401  164.0377 O.3     1  UNL1       -0.4491
     38 C         138.0922  144.5516  162.9413 C.3     1  UNL1        0.0473
     39 C         139.4323  145.2257  162.9414 C.3     1  UNL1        0.1694
     40 C         139.7891  146.1853  161.8451 C.3     1  UNL1        0.0473
@<TRIPOS>BOND
     1    38    39    1
     2    39    40    1
     3    39    37    1
     4    37    35    1
     5    35    36    2
     6    35     1    1
     7     1     2    2
     8     2     3    1
     9     3     4   am
    10     4     5    2
    11     4    20    1
    12    20    21   ar
    13    21    22   ar
    14    22    23   ar
    15    23    26    1
    16    26    27    1
    17    27    28    1
    18    28    29    1
    19    29    30    1
    20    30    31    1
    21    31    32    1
    22    32    33    1
    23    33    34    1
    24    23    24   ar
    25    24    25   ar
    26     3     6    1
    27     6     7    1
    28     7     8    1
    29     7     9    1
    30     7    10    1
    31    10    11    2
    32    11    12    1
    33    12    13    2
    34    13    14    1
    35    14    15    1
    36    15    16    1
    37    15    17    2
    38    17    18    1
    39    18    19    2
    40    11     1    1
    41    19    13    1
    42    25    20   ar
    43    19    10    1
    44    34    29    1
@<TRIPOS>MOLECULE
*****
 40 44 0 0 0
SMALL
GASTEIGER

@<TRIPOS>ATOM
      1 C         141.9521  142.2266  162.2044 C.2     1  UNL1        0.1077
      2 C         142.1665  141.8318  160.7733 C.2     1  UNL1        0.0757
      3 N         141.6928  140.5988  160.0623 N.am    1  UNL1       -0.2534
      4 C         142.0747  140.4947  158.6154 C.2     1  UNL1        0.2528
      5 O         142.8802  141.5842  157.9721 O.2     1  UNL1       -0.2696
      6 C         140.8878  139.4563  160.6068 C.3     1  UNL1        0.1025
      7 C         140.3575  139.2645  161.9967 C.3     1  UNL1        0.0390
      8 C         139.6165  138.5240  163.0703 C.3     1  UNL1        0.0061
      9 C         139.8838  138.0315  161.2858 C.3     1  UNL1        0.0061
     10 C         140.5014  140.1679  163.1856 C.2     1  UNL1       -0.0022
     11 C         141.2111  141.4861  163.2780 C.2     1  UNL1        0.0845
     12 N         141.0671  141.9925  164.6826 N.2     1  UNL1       -0.2493
     13 C         140.2686  140.9873  165.4582 C.2     1  UNL1        0.0654
     14 C         139.8146  140.9531  166.8875 C.3     1  UNL1        0.1022
     15 C         139.0110  139.7911  167.3915 C.2     1  UNL1        0.1236
     16 F         138.5570  139.7569  168.8208 F       1  UNL1       -0.2085
     17 C         138.6614  138.6634  166.4663 C.2     1  UNL1        0.0256
     18 C         139.1153  138.6976  165.0371 C.2     1  UNL1        0.0029
     19 C         139.9189  139.8595  164.5331 C.2     1  UNL1        0.0115
     20 C         141.6510  139.3009  157.8120 C.ar    1  UNL1        0.0541
     21 C         140.3197  139.2960  157.1211 C.ar    1  UNL1        0.0076
     22 C         139.8960  138.1022  156.3176 C.ar    1  UNL1        0.0370
     23 C         140.8038  136.9135  156.2052 C.ar    1  UNL1        0.1386
     24 C         142.1352  136.9184  156.8961 C.ar    1  UNL1        0.0370
     25 C         142.5588  138.1121  157.6995 C.ar    1  UNL1        0.0076
     26 O         140.3801  135.7197  155.4017 O.3     1  UNL1       -0.4740
     27 C         141.4132  134.7858  154.8444 C.3     1  UNL1        0.2226
     28 C         141.5206  133.3855  155.3716 C.3     1  UNL1        0.1202
     29 N         142.7989  132.9173  156.0015 N.3     1  UNL1       -0.2653
     30 C         143.2938  133.5620  157.2622 C.3     1  UNL1        0.1047
     31 C         144.5721  133.0937  157.8921 C.3     1  UNL1        0.1595
     32 O         145.3554  131.9808  157.2613 O.3     1  UNL1       -0.3508
     33 C         144.8604  131.3361  156.0006 C.3     1  UNL1        0.1595
     34 C         143.5822  131.8044  155.3707 C.3     1  UNL1        0.1047
     35 C         142.5590  143.5350  162.6165 C.2     1  UNL1        0.3438
     36 O         141.6838  144.7355  162.8239 O.2     1  UNL1       -0.2448
     37 O         144.0410  143.6430  162.8211 O.3     1  UNL1       -0.4491
     38 C         145.6005  141.7383  163.6520 C.3     1  UNL1        0.0473
     39 C         144.6988  142.9004  163.9462 C.3     1  UNL1        0.1694
     40 C         144.4550  143.3199  165.3656 C.3     1  UNL1        0.0473
@<TRIPOS>BOND
     1    38    39    1
     2    39    40    1
     3    39    37    1
     4    37    35    1
     5    35    36    2
     6    35     1    1
     7     1     2    2
     8     2     3    1
     9     3     4   am
    10     4     5    2
    11     4    20    1
    12    20    21   ar
    13    21    22   ar
    14    22    23   ar
    15    23    26    1
    16    26    27    1
    17    27    28    1
    18    28    29    1
    19    29    30    1
    20    30    31    1
    21    31    32    1
    22    32    33    1
    23    33    34    1
    24    23    24   ar
    25    24    25   ar
    26     3     6    1
    27     6     7    1
    28     7     8    1
    29     7     9    1
    30     7    10    1
    31    10    11    2
    32    11    12    1
    33    12    13    2
    34    13    14    1
    35    14    15    1
    36    15    16    1
    37    15    17    2
    38    17    18    1
    39    18    19    2
    40    11     1    1
    41    19    13    1
    42    25    20   ar
    43    19    10    1
    44    34    29    1
@<TRIPOS>MOLECULE
*****
 40 44 0 0 0
SMALL
GASTEIGER

@<TRIPOS>ATOM
      1 C         141.3447  143.2063  162.8943 C.2     1  UNL1        0.1077
      2 C         141.2108  142.8037  161.4555 C.2     1  UNL1        0.0757
      3 N         141.3843  141.4448  160.8446 N.am    1  UNL1       -0.2534
      4 C         141.1807  141.3676  159.3605 C.2     1  UNL1        0.2528
      5 O         140.8272  142.6030  158.5867 O.2     1  UNL1       -0.2696
      6 C         141.7346  140.1529  161.5215 C.3     1  UNL1        0.1025
      7 C         141.9978  139.9007  162.9766 C.3     1  UNL1        0.0390
      8 C         142.3382  139.0439  164.1597 C.3     1  UNL1        0.0061
      9 C         142.1713  138.5418  162.3657 C.3     1  UNL1        0.0061
     10 C         141.9758  140.8783  164.1141 C.2     1  UNL1       -0.0022
     11 C         141.6851  142.3494  164.0774 C.2     1  UNL1        0.0845
     12 N         141.7889  142.8774  165.4776 N.2     1  UNL1       -0.2493
     13 C         142.1438  141.7326  166.3796 C.2     1  UNL1        0.0654
     14 C         142.3767  141.6557  167.8594 C.3     1  UNL1        0.1022
     15 C         142.7250  140.3431  168.4965 C.2     1  UNL1        0.1236
     16 F         142.9579  140.2661  169.9763 F       1  UNL1       -0.2085
     17 C         142.8405  139.1076  167.6538 C.2     1  UNL1        0.0256
     18 C         142.6076  139.1846  166.1740 C.2     1  UNL1        0.0029
     19 C         142.2592  140.4971  165.5369 C.2     1  UNL1        0.0115
     20 C         141.3306  140.0550  158.6501 C.ar    1  UNL1        0.0541
     21 C         142.6967  139.5420  158.3026 C.ar    1  UNL1        0.0076
     22 C         142.8466  138.2293  157.5923 C.ar    1  UNL1        0.0370
     23 C         141.6305  137.4298  157.2295 C.ar    1  UNL1        0.1386
     24 C         140.2645  137.9428  157.5771 C.ar    1  UNL1        0.0370
     25 C         140.1145  139.2554  158.2874 C.ar    1  UNL1        0.0076
     26 O         141.7804  136.1171  156.5192 O.3     1  UNL1       -0.4740
     27 C         143.1254  135.4582  156.4370 C.3     1  UNL1        0.2226
     28 C         143.4075  134.2260  157.2446 C.3     1  UNL1        0.1202
     29 N         143.4682  132.8864  156.5726 N.3     1  UNL1       -0.2653
     30 C         144.7725  132.1512  156.4821 C.3     1  UNL1        0.1047
     31 C         144.8332  130.8114  155.8100 C.3     1  UNL1        0.1595
     32 O         143.5896  130.2071  155.2286 O.3     1  UNL1       -0.3508
     33 C         142.2853  130.9423  155.3192 C.3     1  UNL1        0.1595
     34 C         142.2246  132.2819  155.9912 C.3     1  UNL1        0.1047
     35 C         141.1066  144.6577  163.1888 C.2     1  UNL1        0.3438
     36 O         142.2670  145.5670  163.4657 O.2     1  UNL1       -0.2448
     37 O         139.7081  145.1998  163.2066 O.3     1  UNL1       -0.4491
     38 C         138.5808  144.9263  165.5314 C.3     1  UNL1        0.0473
     39 C         138.6676  144.5622  164.0788 C.3     1  UNL1        0.1694
     40 C         137.7138  143.5604  163.4985 C.3     1  UNL1        0.0473
@<TRIPOS>BOND
     1    38    39    1
     2    39    40    1
     3    39    37    1
     4    37    35    1
     5    35    36    2
     6    35     1    1
     7     1     2    2
     8     2     3    1
     9     3     4   am
    10     4     5    2
    11     4    20    1
    12    20    21   ar
    13    21    22   ar
    14    22    23   ar
    15    23    26    1
    16    26    27    1
    17    27    28    1
    18    28    29    1
    19    29    30    1
    20    30    31    1
    21    31    32    1
    22    32    33    1
    23    33    34    1
    24    23    24   ar
    25    24    25   ar
    26     3     6    1
    27     6     7    1
    28     7     8    1
    29     7     9    1
    30     7    10    1
    31    10    11    2
    32    11    12    1
    33    12    13    2
    34    13    14    1
    35    14    15    1
    36    15    16    1
    37    15    17    2
    38    17    18    1
    39    18    19    2
    40    11     1    1
    41    19    13    1
    42    25    20   ar
    43    19    10    1
    44    34    29    1
@<TRIPOS>MOLECULE
*****
 40 44 0 0 0
SMALL
GASTEIGER

@<TRIPOS>ATOM
      1 C         143.3543  140.2166  162.8402 C.2     1  UNL1        0.1077
      2 C         143.4430  139.9182  161.3729 C.2     1  UNL1        0.0757
      3 N         142.4054  139.3075  160.4783 N.am    1  UNL1       -0.2534
      4 C         142.8028  139.1376  159.0419 C.2     1  UNL1        0.2528
      5 O         144.1648  139.5688  158.5846 O.2     1  UNL1       -0.2696
      6 C         141.0228  138.8442  160.8301 C.3     1  UNL1        0.1025
      7 C         140.3363  138.8773  162.1634 C.3     1  UNL1        0.0390
      8 C         139.1881  138.6385  163.0986 C.3     1  UNL1        0.0061
      9 C         139.2986  138.2665  161.2688 C.3     1  UNL1        0.0061
     10 C         140.8629  139.3818  163.4742 C.2     1  UNL1       -0.0022
     11 C         142.2061  139.9778  163.7754 C.2     1  UNL1        0.0845
     12 N         142.2430  140.3236  165.2345 N.2     1  UNL1       -0.2493
     13 C         140.9228  139.9413  165.8351 C.2     1  UNL1        0.0654
     14 C         140.3871  140.0480  167.2321 C.3     1  UNL1        0.1022
     15 C         138.9984  139.5726  167.5411 C.2     1  UNL1        0.1236
     16 F         138.4626  139.6793  168.9382 F       1  UNL1       -0.2085
     17 C         138.1454  138.9905  166.4532 C.2     1  UNL1        0.0256
     18 C         138.6811  138.8838  165.0562 C.2     1  UNL1        0.0029
     19 C         140.0698  139.3592  164.7472 C.2     1  UNL1        0.0115
     20 C         141.8384  138.5364  158.0629 C.ar    1  UNL1        0.0541
     21 C         142.1668  137.2379  157.3876 C.ar    1  UNL1        0.0076
     22 C         141.2023  136.6367  156.4086 C.ar    1  UNL1        0.0370
     23 C         139.9096  137.3341  156.1049 C.ar    1  UNL1        0.1386
     24 C         139.5812  138.6326  156.7801 C.ar    1  UNL1        0.0370
     25 C         140.5456  139.2338  157.7592 C.ar    1  UNL1        0.0076
     26 O         138.9451  136.7329  155.1258 O.3     1  UNL1       -0.4740
     27 C         138.2349  137.6100  154.1378 C.3     1  UNL1        0.2226
     28 C         136.7668  137.8768  154.2913 C.3     1  UNL1        0.1202
     29 N         136.2879  139.2526  154.6488 N.3     1  UNL1       -0.2653
     30 C         137.2256  140.4200  154.5590 C.3     1  UNL1        0.1047
     31 C         136.7467  141.7959  154.9165 C.3     1  UNL1        0.1595
     32 O         135.3302  142.0042  155.3638 O.3     1  UNL1       -0.3508
     33 C         134.3925  140.8368  155.4536 C.3     1  UNL1        0.1595
     34 C         134.8714  139.4611  155.0961 C.3     1  UNL1        0.1047
     35 C         144.5753  140.8355  163.4535 C.2     1  UNL1        0.3438
     36 O         145.4751  140.0125  164.3270 O.2     1  UNL1       -0.2448
     37 O         144.8965  142.2774  163.1933 O.3     1  UNL1       -0.4491
     38 C         143.1782  144.2223  163.3149 C.3     1  UNL1        0.0473
     39 C         144.2054  143.3531  163.9777 C.3     1  UNL1        0.1694
     40 C         144.5416  143.5596  165.4249 C.3     1  UNL1        0.0473
@<TRIPOS>BOND
     1    38    39    1
     2    39    40    1
     3    39    37    1
     4    37    35    1
     5    35    36    2
     6    35     1    1
     7     1     2    2
     8     2     3    1
     9     3     4   am
    10     4     5    2
    11     4    20    1
    12    20    21   ar
    13    21    22   ar
    14    22    23   ar
    15    23    26    1
    16    26    27    1
    17    27    28    1
    18    28    29    1
    19    29    30    1
    20    30    31    1
    21    31    32    1
    22    32    33    1
    23    33    34    1
    24    23    24   ar
    25    24    25   ar
    26     3     6    1
    27     6     7    1
    28     7     8    1
    29     7     9    1
    30     7    10    1
    31    10    11    2
    32    11    12    1
    33    12    13    2
    34    13    14    1
    35    14    15    1
    36    15    16    1
    37    15    17    2
    38    17    18    1
    39    18    19    2
    40    11     1    1
    41    19    13    1
    42    25    20   ar
    43    19    10    1
    44    34    29    1
@<TRIPOS>MOLECULE
*****
 40 44 0 0 0
SMALL
GASTEIGER

@<TRIPOS>ATOM
      1 C         142.0729  142.0238  162.5728 C.2     1  UNL1        0.1077
      2 C         142.3335  141.6662  161.1396 C.2     1  UNL1        0.0757
      3 N         141.8206  140.4915  160.3606 N.am    1  UNL1       -0.2534
      4 C         142.2668  140.4138  158.9306 C.2     1  UNL1        0.2528
      5 O         143.1692  141.4717  158.3681 O.2     1  UNL1       -0.2696
      6 C         140.9203  139.3841  160.8225 C.3     1  UNL1        0.1025
      7 C         140.3107  139.1780  162.1774 C.3     1  UNL1        0.0390
      8 C         139.4728  138.4491  163.1857 C.3     1  UNL1        0.0061
      9 C         139.7977  138.0032  161.3985 C.3     1  UNL1        0.0061
     10 C         140.4507  140.0284  163.4052 C.2     1  UNL1       -0.0022
     11 C         141.2350  141.2949  163.5811 C.2     1  UNL1        0.0845
     12 N         141.0528  141.7601  164.9955 N.2     1  UNL1       -0.2493
     13 C         140.1560  140.7811  165.6936 C.2     1  UNL1        0.0654
     14 C         139.6302  140.7260  167.0973 C.3     1  UNL1        0.1022
     15 C         138.7323  139.6007  167.5182 C.2     1  UNL1        0.1236
     16 F         138.2064  139.5455  168.9219 F       1  UNL1       -0.2085
     17 C         138.3601  138.5304  166.5353 C.2     1  UNL1        0.0256
     18 C         138.8859  138.5855  165.1316 C.2     1  UNL1        0.0029
     19 C         139.7839  139.7109  164.7108 C.2     1  UNL1        0.0115
     20 C         141.8108  139.2781  158.0632 C.ar    1  UNL1        0.0541
     21 C         142.6671  138.0552  157.9172 C.ar    1  UNL1        0.0076
     22 C         142.2110  136.9195  157.0498 C.ar    1  UNL1        0.0370
     23 C         140.8988  137.0068  156.3285 C.ar    1  UNL1        0.1386
     24 C         140.0425  138.2297  156.4746 C.ar    1  UNL1        0.0370
     25 C         140.4986  139.3654  157.3420 C.ar    1  UNL1        0.0076
     26 O         140.4427  135.8712  155.4612 O.3     1  UNL1       -0.4740
     27 C         141.4486  134.9302  154.8673 C.3     1  UNL1        0.2226
     28 C         141.5300  133.5140  155.3549 C.3     1  UNL1        0.1202
     29 N         142.7922  133.0109  155.9904 N.3     1  UNL1       -0.2653
     30 C         143.5486  131.8784  155.3619 C.3     1  UNL1        0.1047
     31 C         144.8108  131.3753  155.9974 C.3     1  UNL1        0.1595
     32 O         145.3165  132.0049  157.2615 O.3     1  UNL1       -0.3508
     33 C         144.5600  133.1375  157.8901 C.3     1  UNL1        0.1595
     34 C         143.2979  133.6405  157.2545 C.3     1  UNL1        0.1047
     35 C         142.7381  143.2758  163.0626 C.2     1  UNL1        0.3438
     36 O         144.0381  143.1927  163.8064 O.2     1  UNL1       -0.2448
     37 O         142.1034  144.6110  162.8086 O.3     1  UNL1       -0.4491
     38 C         140.0488  144.7000  161.2209 C.3     1  UNL1        0.0473
     39 C         140.6202  144.7102  162.6078 C.3     1  UNL1        0.1694
     40 C         139.7084  144.8198  163.7938 C.3     1  UNL1        0.0473
@<TRIPOS>BOND
     1    38    39    1
     2    39    40    1
     3    39    37    1
     4    37    35    1
     5    35    36    2
     6    35     1    1
     7     1     2    2
     8     2     3    1
     9     3     4   am
    10     4     5    2
    11     4    20    1
    12    20    21   ar
    13    21    22   ar
    14    22    23   ar
    15    23    26    1
    16    26    27    1
    17    27    28    1
    18    28    29    1
    19    29    30    1
    20    30    31    1
    21    31    32    1
    22    32    33    1
    23    33    34    1
    24    23    24   ar
    25    24    25   ar
    26     3     6    1
    27     6     7    1
    28     7     8    1
    29     7     9    1
    30     7    10    1
    31    10    11    2
    32    11    12    1
    33    12    13    2
    34    13    14    1
    35    14    15    1
    36    15    16    1
    37    15    17    2
    38    17    18    1
    39    18    19    2
    40    11     1    1
    41    19    13    1
    42    25    20   ar
    43    19    10    1
    44    34    29    1
@<TRIPOS>MOLECULE
*****
 40 44 0 0 0
SMALL
GASTEIGER

@<TRIPOS>ATOM
      1 C         139.7069  142.9480  162.2229 C.2     1  UNL1        0.1077
      2 C         140.3609  143.1089  160.8826 C.2     1  UNL1        0.0757
      3 N         140.8872  142.0453  159.9650 N.am    1  UNL1       -0.2534
      4 C         141.4911  142.5334  158.6817 C.2     1  UNL1        0.2528
      5 O         141.5390  144.0033  158.3867 O.2     1  UNL1       -0.2696
      6 C         140.8895  140.5582  160.1612 C.3     1  UNL1        0.1025
      7 C         140.3660  139.7673  161.3233 C.3     1  UNL1        0.0390
      8 C         140.0768  138.5031  162.0770 C.3     1  UNL1        0.0061
      9 C         140.8923  138.7037  160.4058 C.3     1  UNL1        0.0061
     10 C         139.7109  140.2683  162.5763 C.2     1  UNL1       -0.0022
     11 C         139.4176  141.6838  162.9766 C.2     1  UNL1        0.0845
     12 N         138.7526  141.6569  164.3209 N.2     1  UNL1       -0.2493
     13 C         138.6350  140.2248  164.7514 C.2     1  UNL1        0.0654
     14 C         138.0651  139.5915  165.9859 C.3     1  UNL1        0.1022
     15 C         138.0874  138.0998  166.1421 C.2     1  UNL1        0.1236
     16 F         137.5175  137.4664  167.3766 F       1  UNL1       -0.2085
     17 C         138.6797  137.2416  165.0639 C.2     1  UNL1        0.0256
     18 C         139.2496  137.8749  163.8294 C.2     1  UNL1        0.0029
     19 C         139.2273  139.3666  163.6732 C.2     1  UNL1        0.0115
     20 C         142.0471  141.5516  157.6933 C.ar    1  UNL1        0.0541
     21 C         143.4923  141.1557  157.7612 C.ar    1  UNL1        0.0076
     22 C         144.0483  140.1739  156.7728 C.ar    1  UNL1        0.0370
     23 C         143.1591  139.5880  155.7165 C.ar    1  UNL1        0.1386
     24 C         141.7139  139.9839  155.6485 C.ar    1  UNL1        0.0370
     25 C         141.1579  140.9657  156.6369 C.ar    1  UNL1        0.0076
     26 O         143.7150  138.6062  154.7281 O.3     1  UNL1       -0.4740
     27 C         143.2789  137.1716  154.7696 C.3     1  UNL1        0.2226
     28 C         143.9515  136.2100  155.7038 C.3     1  UNL1        0.1202
     29 N         143.3441  134.8622  155.9580 N.3     1  UNL1       -0.2653
     30 C         142.1150  134.4402  155.2088 C.3     1  UNL1        0.1047
     31 C         141.5076  133.0924  155.4630 C.3     1  UNL1        0.1595
     32 O         142.1293  132.1667  156.4663 O.3     1  UNL1       -0.3508
     33 C         143.3584  132.5888  157.2155 C.3     1  UNL1        0.1595
     34 C         143.9658  133.9365  156.9613 C.3     1  UNL1        0.1047
     35 C         139.2865  144.2193  162.8988 C.2     1  UNL1        0.3438
     36 O         138.0083  144.8945  162.4983 O.2     1  UNL1       -0.2448
     37 O         140.1444  144.8156  163.9752 O.3     1  UNL1       -0.4491
     38 C         142.6482  145.0644  163.3281 C.3     1  UNL1        0.0473
     39 C         141.5731  144.3827  164.1215 C.3     1  UNL1        0.1694
     40 C         141.9267  143.2682  165.0610 C.3     1  UNL1        0.0473
@<TRIPOS>BOND
     1    38    39    1
     2    39    40    1
     3    39    37    1
     4    37    35    1
     5    35    36    2
     6    35     1    1
     7     1     2    2
     8     2     3    1
     9     3     4   am
    10     4     5    2
    11     4    20    1
    12    20    21   ar
    13    21    22   ar
    14    22    23   ar
    15    23    26    1
    16    26    27    1
    17    27    28    1
    18    28    29    1
    19    29    30    1
    20    30    31    1
    21    31    32    1
    22    32    33    1
    23    33    34    1
    24    23    24   ar
    25    24    25   ar
    26     3     6    1
    27     6     7    1
    28     7     8    1
    29     7     9    1
    30     7    10    1
    31    10    11    2
    32    11    12    1
    33    12    13    2
    34    13    14    1
    35    14    15    1
    36    15    16    1
    37    15    17    2
    38    17    18    1
    39    18    19    2
    40    11     1    1
    41    19    13    1
    42    25    20   ar
    43    19    10    1
    44    34    29    1
@<TRIPOS>MOLECULE
*****
 40 44 0 0 0
SMALL
GASTEIGER

@<TRIPOS>ATOM
      1 C         140.6838  142.3321  161.6531 C.2     1  UNL1        0.1077
      2 C         140.6629  141.9162  160.2120 C.2     1  UNL1        0.0757
      3 N         141.1733  140.6466  159.5975 N.am    1  UNL1       -0.2534
      4 C         141.0040  140.5287  158.1118 C.2     1  UNL1        0.2528
      5 O         140.3581  141.6409  157.3399 O.2     1  UNL1       -0.2696
      6 C         141.8307  139.4794  160.2723 C.3     1  UNL1        0.1025
      7 C         142.1399  139.2934  161.7283 C.3     1  UNL1        0.0390
      8 C         142.6764  138.5424  162.9108 C.3     1  UNL1        0.0061
      9 C         142.6504  138.0237  161.1139 C.3     1  UNL1        0.0061
     10 C         141.8683  140.2288  162.8691 C.2     1  UNL1       -0.0022
     11 C         141.2202  141.5811  162.8355 C.2     1  UNL1        0.0845
     12 N         141.1810  142.1112  164.2382 N.2     1  UNL1       -0.2493
     13 C         141.8048  141.0864  165.1386 C.2     1  UNL1        0.0654
     14 C         142.0409  141.0623  166.6197 C.3     1  UNL1        0.1022
     15 C         142.7018  139.8749  167.2546 C.2     1  UNL1        0.1236
     16 F         142.9379  139.8508  168.7357 F       1  UNL1       -0.2085
     17 C         143.1266  138.7115  166.4084 C.2     1  UNL1        0.0256
     18 C         142.8905  138.7355  164.9273 C.2     1  UNL1        0.0029
     19 C         142.2296  139.9230  164.2924 C.2     1  UNL1        0.0115
     20 C         141.4806  139.2985  157.3979 C.ar    1  UNL1        0.0541
     21 C         140.5465  138.1438  157.1883 C.ar    1  UNL1        0.0076
     22 C         141.0231  136.9136  156.4744 C.ar    1  UNL1        0.0370
     23 C         142.4337  136.8383  155.9702 C.ar    1  UNL1        0.1386
     24 C         143.3678  137.9930  156.1798 C.ar    1  UNL1        0.0370
     25 C         142.8912  139.2232  156.8937 C.ar    1  UNL1        0.0076
     26 O         142.9103  135.6081  155.2563 O.3     1  UNL1       -0.4740
     27 C         143.6848  134.5614  156.0011 C.3     1  UNL1        0.2226
     28 C         142.9663  133.5783  156.8771 C.3     1  UNL1        0.1202
     29 N         142.4100  132.3158  156.2882 N.3     1  UNL1       -0.2653
     30 C         142.9824  130.9874  156.6852 C.3     1  UNL1        0.1047
     31 C         142.4261  129.7249  156.0963 C.3     1  UNL1        0.1595
     32 O         141.2975  129.7910  155.1105 O.3     1  UNL1       -0.3508
     33 C         140.7251  131.1194  154.7135 C.3     1  UNL1        0.1595
     34 C         141.2814  132.3819  155.3023 C.3     1  UNL1        0.1047
     35 C         140.0896  143.6768  161.9511 C.2     1  UNL1        0.3438
     36 O         140.9822  144.8704  162.1203 O.2     1  UNL1       -0.2448
     37 O         138.6028  143.8280  162.0798 O.3     1  UNL1       -0.4491
     38 C         137.7428  144.0482  164.5215 C.3     1  UNL1        0.0473
     39 C         137.8894  143.2447  163.2633 C.3     1  UNL1        0.1694
     40 C         137.3225  141.8579  163.1888 C.3     1  UNL1        0.0473
@<TRIPOS>BOND
     1    38    39    1
     2    39    40    1
     3    39    37    1
     4    37    35    1
     5    35    36    2
     6    35     1    1
     7     1     2    2
     8     2     3    1
     9     3     4   am
    10     4     5    2
    11     4    20    1
    12    20    21   ar
    13    21    22   ar
    14    22    23   ar
    15    23    26    1
    16    26    27    1
    17    27    28    1
    18    28    29    1
    19    29    30    1
    20    30    31    1
    21    31    32    1
    22    32    33    1
    23    33    34    1
    24    23    24   ar
    25    24    25   ar
    26     3     6    1
    27     6     7    1
    28     7     8    1
    29     7     9    1
    30     7    10    1
    31    10    11    2
    32    11    12    1
    33    12    13    2
    34    13    14    1
    35    14    15    1
    36    15    16    1
    37    15    17    2
    38    17    18    1
    39    18    19    2
    40    11     1    1
    41    19    13    1
    42    25    20   ar
    43    19    10    1
    44    34    29    1
@<TRIPOS>MOLECULE
*****
 40 44 0 0 0
SMALL
GASTEIGER

@<TRIPOS>ATOM
      1 C         141.4262  143.1645  162.1638 C.2     1  UNL1        0.1077
      2 C         141.1379  143.2455  160.6940 C.2     1  UNL1        0.0757
      3 N         140.1039  142.5022  159.9014 N.am    1  UNL1       -0.2534
      4 C         140.0659  142.8072  158.4332 C.2     1  UNL1        0.2528
      5 O         141.0250  143.8014  157.8487 O.2     1  UNL1       -0.2696
      6 C         139.1028  141.4942  160.3828 C.3     1  UNL1        0.1025
      7 C         138.8885  140.9805  161.7757 C.3     1  UNL1        0.0390
      8 C         138.2141  140.1360  162.8159 C.3     1  UNL1        0.0061
      9 C         137.8545  140.2371  160.9831 C.3     1  UNL1        0.0061
     10 C         139.6224  141.3480  163.0313 C.2     1  UNL1       -0.0022
     11 C         140.7518  142.3200  163.2040 C.2     1  UNL1        0.0845
     12 N         141.1369  142.3302  164.6537 N.2     1  UNL1       -0.2493
     13 C         140.2455  141.3646  165.3769 C.2     1  UNL1        0.0654
     14 C         140.1652  140.9597  166.8190 C.3     1  UNL1        0.1022
     15 C         139.1490  139.9478  167.2584 C.2     1  UNL1        0.1236
     16 F         139.0687  139.5428  168.7005 F       1  UNL1       -0.2085
     17 C         138.2130  139.3407  166.2557 C.2     1  UNL1        0.0256
     18 C         138.2932  139.7456  164.8136 C.2     1  UNL1        0.0029
     19 C         139.3095  140.7576  164.3743 C.2     1  UNL1        0.0115
     20 C         139.0688  142.1179  157.5495 C.ar    1  UNL1        0.0541
     21 C         137.8320  142.8421  157.1072 C.ar    1  UNL1        0.0076
     22 C         136.8349  142.1529  156.2235 C.ar    1  UNL1        0.0370
     23 C         137.0747  140.7395  155.7823 C.ar    1  UNL1        0.1386
     24 C         138.3116  140.0153  156.2246 C.ar    1  UNL1        0.0370
     25 C         139.3087  140.7046  157.1083 C.ar    1  UNL1        0.0076
     26 O         136.0777  140.0503  154.8986 O.3     1  UNL1       -0.4740
     27 C         134.6819  139.8061  155.3908 C.3     1  UNL1        0.2226
     28 C         133.7815  140.9658  155.6982 C.3     1  UNL1        0.1202
     29 N         132.3452  140.7253  156.0578 N.3     1  UNL1       -0.2653
     30 C         131.9990  139.7905  157.1786 C.3     1  UNL1        0.1047
     31 C         130.5627  139.5500  157.5382 C.3     1  UNL1        0.1595
     32 O         129.4727  140.2445  156.7769 O.3     1  UNL1       -0.3508
     33 C         129.8188  141.1793  155.6561 C.3     1  UNL1        0.1595
     34 C         131.2551  141.4197  155.2965 C.3     1  UNL1        0.1047
     35 C         142.5357  144.0441  162.6589 C.2     1  UNL1        0.3438
     36 O         142.2170  145.3454  163.3334 O.2     1  UNL1       -0.2448
     37 O         143.9641  143.6225  162.4794 O.3     1  UNL1       -0.4491
     38 C         144.5675  143.3595  164.9927 C.3     1  UNL1        0.0473
     39 C         144.6703  142.8803  163.5750 C.3     1  UNL1        0.1694
     40 C         145.4792  141.6589  163.2530 C.3     1  UNL1        0.0473
@<TRIPOS>BOND
     1    38    39    1
     2    39    40    1
     3    39    37    1
     4    37    35    1
     5    35    36    2
     6    35     1    1
     7     1     2    2
     8     2     3    1
     9     3     4   am
    10     4     5    2
    11     4    20    1
    12    20    21   ar
    13    21    22   ar
    14    22    23   ar
    15    23    26    1
    16    26    27    1
    17    27    28    1
    18    28    29    1
    19    29    30    1
    20    30    31    1
    21    31    32    1
    22    32    33    1
    23    33    34    1
    24    23    24   ar
    25    24    25   ar
    26     3     6    1
    27     6     7    1
    28     7     8    1
    29     7     9    1
    30     7    10    1
    31    10    11    2
    32    11    12    1
    33    12    13    2
    34    13    14    1
    35    14    15    1
    36    15    16    1
    37    15    17    2
    38    17    18    1
    39    18    19    2
    40    11     1    1
    41    19    13    1
    42    25    20   ar
    43    19    10    1
    44    34    29    1
