@<TRIPOS>MOLECULE
*****
 36 38 0 0 0
SMALL
GASTEIGER

@<TRIPOS>ATOM
      1 C         141.7303  144.2864  160.1218 C.3     1  UNL1        0.1459
      2 O         141.8301  145.6348  159.4722 O.3     1  UNL1       -0.3813
      3 H         142.7623  145.8956  159.4103 H       1  UNL1        0.2105
      4 C         142.9740  143.5699  160.5575 C.3     1  UNL1        0.1034
      5 C         143.5162  142.4266  164.8759 C.3     1  UNL1        0.1687
      6 C         143.2579  143.8571  164.5055 C.3     1  UNL1        0.0609
      7 C         143.0772  144.2381  163.0660 C.3     1  UNL1        0.0759
      8 N         143.1547  143.1888  161.9970 N.3     1  UNL1       -0.2704
      9 C         143.4129  141.7584  162.3674 C.3     1  UNL1        0.0759
     10 C         143.5937  141.3773  163.8069 C.3     1  UNL1        0.0609
     11 O         143.6969  142.0455  166.3154 O.3     1  UNL1       -0.4794
     12 C         143.0467  139.1333  166.6252 C.3     1  UNL1        0.0342
     13 C         142.1876  140.1683  167.2890 C.ar    1  UNL1        0.0129
     14 C         141.0034  139.7472  168.1077 C.ar    1  UNL1        0.0101
     15 C         140.1443  140.7822  168.7716 C.ar    1  UNL1        0.0576
     16 CL        138.9600  140.3610  169.5903 Cl      1  UNL1       -0.0823
     17 C         140.4694  142.2383  168.6167 C.ar    1  UNL1        0.0145
     18 C         141.6535  142.6594  167.7980 C.ar    1  UNL1        0.0374
     19 C         142.5126  141.6244  167.1341 C.ar    1  UNL1        0.1344
     20 C         140.3868  143.6546  160.3356 C.3     1  UNL1        0.1204
     21 N         140.2201  142.5774  161.3661 N.am    1  UNL1       -0.2985
     22 C         138.8690  142.3109  161.9607 C.2     1  UNL1        0.2473
     23 O         137.6846  143.1216  161.5249 O.2     1  UNL1       -0.2701
     24 H         140.9975  142.0453  161.6521 H       1  UNL1        0.1498
     25 C         138.7023  141.2337  162.9911 C.ar    1  UNL1        0.0744
     26 C         138.5985  139.7989  162.5662 C.ar    1  UNL1        0.0792
     27 N         138.4318  138.7216  163.5967 N.ar    1  UNL1       -0.3198
     28 C         138.3689  139.0792  165.0521 C.ar    1  UNL1        0.2577
     29 O         138.2023  138.0020  166.0825 O.2     1  UNL1       -0.2672
     30 C         138.4728  140.5140  165.4770 C.ar    1  UNL1        0.0646
     31 C         138.6394  141.5912  164.4466 C.ar    1  UNL1        0.0819
     32 H         138.3636  137.7799  163.3178 H       1  UNL1        0.1690
     33 C         138.7433  143.0260  164.8715 C.3     1  UNL1        0.4189
     34 F         138.8471  144.4608  165.2965 F       1  UNL1       -0.1659
     35 F         140.2352  142.8939  164.9532 F       1  UNL1       -0.1659
     36 F         137.2513  143.1582  164.7899 F       1  UNL1       -0.1659
@<TRIPOS>BOND
     1    12    13    1
     2    13    14   ar
     3    14    15   ar
     4    15    16    1
     5    15    17   ar
     6    17    18   ar
     7    18    19   ar
     8    19    11    1
     9    11     5    1
    10     5     6    1
    11     6     7    1
    12     7     8    1
    13     8     4    1
    14     4     1    1
    15     1     2    1
    16     1    20    1
    17    20    21    1
    18    21    22   am
    19    22    23    2
    20    22    25    1
    21    25    26   ar
    22    26    27   ar
    23    27    28   ar
    24    28    29    2
    25    28    30   ar
    26    30    31   ar
    27    31    33    1
    28    33    34    1
    29    33    35    1
    30    33    36    1
    31     8     9    1
    32     9    10    1
    33    19    13   ar
    34    10     5    1
    35    31    25   ar
    36     2     3    1
    37    21    24    1
    38    27    32    1
@<TRIPOS>MOLECULE
*****
 36 38 0 0 0
SMALL
GASTEIGER

@<TRIPOS>ATOM
      1 C         142.8359  141.2625  168.8072 C.3     1  UNL1        0.1459
      2 O         143.5277  140.7553  170.0377 O.3     1  UNL1       -0.3813
      3 H         143.0159  140.0245  170.4184 H       1  UNL1        0.2105
      4 C         141.5510  140.6334  168.3560 C.3     1  UNL1        0.1034
      5 C         141.4695  138.1034  164.6354 C.3     1  UNL1        0.1687
      6 C         142.6774  138.0906  165.5248 C.3     1  UNL1        0.0609
      7 C         142.7046  138.9340  166.7650 C.3     1  UNL1        0.0759
      8 N         141.5239  139.7900  167.1158 N.3     1  UNL1       -0.2704
      9 C         140.3160  139.8028  166.2265 C.3     1  UNL1        0.0759
     10 C         140.2888  138.9594  164.9863 C.3     1  UNL1        0.0609
     11 O         141.4423  137.2600  163.3953 O.3     1  UNL1       -0.4794
     12 C         139.4140  138.0765  161.3412 C.3     1  UNL1        0.0342
     13 C         140.8774  138.2456  161.0587 C.ar    1  UNL1        0.0129
     14 C         141.3266  138.8229  159.7492 C.ar    1  UNL1        0.0101
     15 C         142.7901  138.9919  159.4667 C.ar    1  UNL1        0.0576
     16 CL        143.2393  139.5692  158.1571 Cl      1  UNL1       -0.0823
     17 C         143.8042  138.5837  160.4936 C.ar    1  UNL1        0.0145
     18 C         143.3550  138.0064  161.8032 C.ar    1  UNL1        0.0374
     19 C         141.8916  137.8374  162.0857 C.ar    1  UNL1        0.1344
     20 C         143.4288  142.3988  168.0279 C.3     1  UNL1        0.1204
     21 N         143.1620  142.5190  166.5568 N.am    1  UNL1       -0.2985
     22 C         144.0792  143.3323  165.6922 C.2     1  UNL1        0.2473
     23 O         145.2632  144.0253  166.2989 O.2     1  UNL1       -0.2701
     24 H         142.3850  142.0642  166.1586 H       1  UNL1        0.1498
     25 C         143.8125  143.4526  164.2211 C.ar    1  UNL1        0.0744
     26 C         143.1456  144.6815  163.6778 C.ar    1  UNL1        0.0792
     27 N         142.8788  144.8017  162.2065 N.ar    1  UNL1       -0.3198
     28 C         143.2790  143.6931  161.2787 C.ar    1  UNL1        0.2577
     29 O         143.0122  143.8134  159.8075 O.2     1  UNL1       -0.2672
     30 C         143.9459  142.4643  161.8220 C.ar    1  UNL1        0.0646
     31 C         144.2126  142.3440  163.2932 C.ar    1  UNL1        0.0819
     32 H         142.4411  145.6082  161.8499 H       1  UNL1        0.1690
     33 C         144.8795  141.1152  163.8365 C.3     1  UNL1        0.4189
     34 F         145.5464  139.8863  164.3798 F       1  UNL1       -0.1659
     35 F         146.2176  141.7774  163.6917 F       1  UNL1       -0.1659
     36 F         143.5414  140.4530  163.9813 F       1  UNL1       -0.1659
@<TRIPOS>BOND
     1    12    13    1
     2    13    14   ar
     3    14    15   ar
     4    15    16    1
     5    15    17   ar
     6    17    18   ar
     7    18    19   ar
     8    19    11    1
     9    11     5    1
    10     5     6    1
    11     6     7    1
    12     7     8    1
    13     8     4    1
    14     4     1    1
    15     1     2    1
    16     1    20    1
    17    20    21    1
    18    21    22   am
    19    22    23    2
    20    22    25    1
    21    25    26   ar
    22    26    27   ar
    23    27    28   ar
    24    28    29    2
    25    28    30   ar
    26    30    31   ar
    27    31    33    1
    28    33    34    1
    29    33    35    1
    30    33    36    1
    31     8     9    1
    32     9    10    1
    33    19    13   ar
    34    10     5    1
    35    31    25   ar
    36     2     3    1
    37    21    24    1
    38    27    32    1
@<TRIPOS>MOLECULE
*****
 36 38 0 0 0
SMALL
GASTEIGER

@<TRIPOS>ATOM
      1 C         144.2537  142.0417  158.9834 C.3     1  UNL1        0.1459
      2 O         144.6948  142.7804  157.7547 O.3     1  UNL1       -0.3813
      3 H         144.5483  142.2246  156.9733 H       1  UNL1        0.2105
      4 C         143.6901  140.6568  158.8641 C.3     1  UNL1        0.1034
      5 C         142.2872  138.4739  162.5407 C.3     1  UNL1        0.1687
      6 C         143.7495  138.5229  162.2096 C.3     1  UNL1        0.0609
      7 C         144.2171  139.2505  160.9841 C.3     1  UNL1        0.0759
      8 N         143.2225  139.9292  160.0896 N.3     1  UNL1       -0.2704
      9 C         141.7603  139.8802  160.4206 C.3     1  UNL1        0.0759
     10 C         141.2926  139.1526  161.6461 C.3     1  UNL1        0.0609
     11 O         141.8197  137.7463  163.7662 O.3     1  UNL1       -0.4794
     12 C         143.6709  138.3211  166.0558 C.3     1  UNL1        0.0342
     13 C         142.2519  138.8054  166.0989 C.ar    1  UNL1        0.0129
     14 C         141.7585  139.5770  167.2868 C.ar    1  UNL1        0.0101
     15 C         140.3395  140.0614  167.3298 C.ar    1  UNL1        0.0576
     16 CL        139.8462  140.8331  168.5178 Cl      1  UNL1       -0.0823
     17 C         139.4139  139.7740  166.1851 C.ar    1  UNL1        0.0145
     18 C         139.9073  139.0023  164.9972 C.ar    1  UNL1        0.0374
     19 C         141.3263  138.5180  164.9541 C.ar    1  UNL1        0.1344
     20 C         144.3763  142.6880  160.3315 C.3     1  UNL1        0.1204
     21 N         143.1510  142.9265  161.1630 N.am    1  UNL1       -0.2985
     22 C         143.1611  143.9830  162.2279 C.2     1  UNL1        0.2473
     23 O         144.3967  144.8009  162.4611 O.2     1  UNL1       -0.2701
     24 H         142.3400  142.3897  161.0099 H       1  UNL1        0.1498
     25 C         141.9357  144.2216  163.0594 C.ar    1  UNL1        0.0744
     26 C         140.9058  145.2149  162.6095 C.ar    1  UNL1        0.0792
     27 N         139.6803  145.4535  163.4412 N.ar    1  UNL1       -0.3198
     28 C         139.4850  144.6987  164.7226 C.ar    1  UNL1        0.2577
     29 O         138.2596  144.9372  165.5541 O.2     1  UNL1       -0.2672
     30 C         140.5149  143.7053  165.1724 C.ar    1  UNL1        0.0646
     31 C         141.7403  143.4667  164.3409 C.ar    1  UNL1        0.0819
     32 H         139.0043  146.1054  163.1459 H       1  UNL1        0.1690
     33 C         142.7703  142.4734  164.7907 C.3     1  UNL1        0.4189
     34 F         143.8003  141.4800  165.2406 F       1  UNL1       -0.1659
     35 F         142.0624  141.3936  164.0272 F       1  UNL1       -0.1659
     36 F         143.4782  143.5531  165.5542 F       1  UNL1       -0.1659
@<TRIPOS>BOND
     1    12    13    1
     2    13    14   ar
     3    14    15   ar
     4    15    16    1
     5    15    17   ar
     6    17    18   ar
     7    18    19   ar
     8    19    11    1
     9    11     5    1
    10     5     6    1
    11     6     7    1
    12     7     8    1
    13     8     4    1
    14     4     1    1
    15     1     2    1
    16     1    20    1
    17    20    21    1
    18    21    22   am
    19    22    23    2
    20    22    25    1
    21    25    26   ar
    22    26    27   ar
    23    27    28   ar
    24    28    29    2
    25    28    30   ar
    26    30    31   ar
    27    31    33    1
    28    33    34    1
    29    33    35    1
    30    33    36    1
    31     8     9    1
    32     9    10    1
    33    19    13   ar
    34    10     5    1
    35    31    25   ar
    36     2     3    1
    37    21    24    1
    38    27    32    1
@<TRIPOS>MOLECULE
*****
 36 38 0 0 0
SMALL
GASTEIGER

@<TRIPOS>ATOM
      1 C         138.6559  139.9066  158.6640 C.3     1  UNL1        0.1459
      2 O         137.9717  139.8117  157.3325 O.3     1  UNL1       -0.3813
      3 H         138.2385  138.9910  156.8896 H       1  UNL1        0.2105
      4 C         139.5865  138.8172  159.1083 C.3     1  UNL1        0.1034
      5 C         140.2831  138.1037  163.4964 C.3     1  UNL1        0.1687
      6 C         138.9065  137.9496  162.9207 C.3     1  UNL1        0.0609
      7 C         138.6743  138.1875  161.4581 C.3     1  UNL1        0.0759
      8 N         139.8187  138.5794  160.5710 N.3     1  UNL1       -0.2704
      9 C         141.1952  138.7334  161.1466 C.3     1  UNL1        0.0759
     10 C         141.4274  138.4956  162.6094 C.3     1  UNL1        0.0609
     11 O         140.5152  137.8658  164.9591 O.3     1  UNL1       -0.4794
     12 C         138.2114  138.9254  166.5622 C.3     1  UNL1        0.0342
     13 C         139.5657  139.5581  166.6867 C.ar    1  UNL1        0.0129
     14 C         139.7682  140.7206  167.6127 C.ar    1  UNL1        0.0101
     15 C         141.1225  141.3534  167.7373 C.ar    1  UNL1        0.0576
     16 CL        141.3248  142.5159  168.6633 Cl      1  UNL1       -0.0823
     17 C         142.2743  140.8236  166.9358 C.ar    1  UNL1        0.0145
     18 C         142.0719  139.6611  166.0097 C.ar    1  UNL1        0.0374
     19 C         140.7176  139.0284  165.8852 C.ar    1  UNL1        0.1344
     20 C         138.4095  141.0907  159.5512 C.3     1  UNL1        0.1204
     21 N         139.5451  141.7050  160.3147 N.am    1  UNL1       -0.2985
     22 C         139.3017  142.8990  161.1895 C.2     1  UNL1        0.2473
     23 O         137.9227  143.4786  161.3008 O.2     1  UNL1       -0.2701
     24 H         140.4502  141.3245  160.2417 H       1  UNL1        0.1498
     25 C         140.4374  143.5132  161.9531 C.ar    1  UNL1        0.0744
     26 C         141.5323  144.2307  161.2207 C.ar    1  UNL1        0.0792
     27 N         142.6680  144.8450  161.9843 N.ar    1  UNL1       -0.3198
     28 C         142.7086  144.7418  163.4802 C.ar    1  UNL1        0.2577
     29 O         143.8442  145.3561  164.2437 O.2     1  UNL1       -0.2672
     30 C         141.6137  144.0244  164.2125 C.ar    1  UNL1        0.0646
     31 C         140.4781  143.4101  163.4490 C.ar    1  UNL1        0.0819
     32 H         143.3866  145.3158  161.5036 H       1  UNL1        0.1690
     33 C         139.3831  142.6926  164.1814 C.3     1  UNL1        0.4189
     34 F         138.2881  141.9752  164.9137 F       1  UNL1       -0.1659
     35 F         138.7068  144.0034  164.4544 F       1  UNL1       -0.1659
     36 F         140.0593  141.3819  163.9083 F       1  UNL1       -0.1659
@<TRIPOS>BOND
     1    12    13    1
     2    13    14   ar
     3    14    15   ar
     4    15    16    1
     5    15    17   ar
     6    17    18   ar
     7    18    19   ar
     8    19    11    1
     9    11     5    1
    10     5     6    1
    11     6     7    1
    12     7     8    1
    13     8     4    1
    14     4     1    1
    15     1     2    1
    16     1    20    1
    17    20    21    1
    18    21    22   am
    19    22    23    2
    20    22    25    1
    21    25    26   ar
    22    26    27   ar
    23    27    28   ar
    24    28    29    2
    25    28    30   ar
    26    30    31   ar
    27    31    33    1
    28    33    34    1
    29    33    35    1
    30    33    36    1
    31     8     9    1
    32     9    10    1
    33    19    13   ar
    34    10     5    1
    35    31    25   ar
    36     2     3    1
    37    21    24    1
    38    27    32    1
@<TRIPOS>MOLECULE
*****
 36 38 0 0 0
SMALL
GASTEIGER

@<TRIPOS>ATOM
      1 C         144.1881  142.2016  158.8423 C.3     1  UNL1        0.1459
      2 O         144.7395  143.1384  157.8087 O.3     1  UNL1       -0.3813
      3 H         144.5792  142.7744  156.9240 H       1  UNL1        0.2105
      4 C         143.5158  140.9292  158.4188 C.3     1  UNL1        0.1034
      5 C         139.8179  139.5179  160.5597 C.3     1  UNL1        0.1687
      6 C         139.7164  140.5875  159.5130 C.3     1  UNL1        0.0609
      7 C         140.9490  141.0580  158.7994 C.3     1  UNL1        0.0759
      8 N         142.2832  140.4588  159.1324 N.3     1  UNL1       -0.2704
      9 C         142.3848  139.3892  160.1791 C.3     1  UNL1        0.0759
     10 C         141.1521  138.9187  160.8928 C.3     1  UNL1        0.0609
     11 O         138.5853  139.0474  161.2733 O.3     1  UNL1       -0.4794
     12 C         137.8394  141.5558  162.7403 C.3     1  UNL1        0.0342
     13 C         138.1653  140.3078  163.5060 C.ar    1  UNL1        0.0129
     14 C         138.1182  140.3140  165.0053 C.ar    1  UNL1        0.0101
     15 C         138.4440  139.0660  165.7710 C.ar    1  UNL1        0.0576
     16 CL        138.3969  139.0723  167.2703 Cl      1  UNL1       -0.0823
     17 C         138.8169  137.8119  165.0376 C.ar    1  UNL1        0.0145
     18 C         138.8640  137.8057  163.5384 C.ar    1  UNL1        0.0374
     19 C         138.5382  139.0537  162.7726 C.ar    1  UNL1        0.1344
     20 C         144.3089  142.5371  160.2993 C.3     1  UNL1        0.1204
     21 N         143.0778  142.8188  161.1086 N.am    1  UNL1       -0.2985
     22 C         143.1241  143.8273  162.2180 C.2     1  UNL1        0.2473
     23 O         144.4015  144.5541  162.5181 O.2     1  UNL1       -0.2701
     24 H         142.2394  142.3418  160.9116 H       1  UNL1        0.1498
     25 C         141.8930  144.1091  163.0273 C.ar    1  UNL1        0.0744
     26 C         141.0240  145.2833  162.6867 C.ar    1  UNL1        0.0792
     27 N         139.7928  145.5650  163.4961 N.ar    1  UNL1       -0.3198
     28 C         139.4307  144.6725  164.6459 C.ar    1  UNL1        0.2577
     29 O         138.1996  144.9543  165.4552 O.2     1  UNL1       -0.2672
     30 C         140.2997  143.4983  164.9865 C.ar    1  UNL1        0.0646
     31 C         141.5308  143.2165  164.1772 C.ar    1  UNL1        0.0819
     32 H         139.2225  146.3357  163.2725 H       1  UNL1        0.1690
     33 C         142.3998  142.0423  164.5178 C.3     1  UNL1        0.4189
     34 F         143.2687  140.8680  164.8584 F       1  UNL1       -0.1659
     35 F         143.2300  142.9157  165.4109 F       1  UNL1       -0.1659
     36 F         141.5695  141.1688  163.6247 F       1  UNL1       -0.1659
@<TRIPOS>BOND
     1    12    13    1
     2    13    14   ar
     3    14    15   ar
     4    15    16    1
     5    15    17   ar
     6    17    18   ar
     7    18    19   ar
     8    19    11    1
     9    11     5    1
    10     5     6    1
    11     6     7    1
    12     7     8    1
    13     8     4    1
    14     4     1    1
    15     1     2    1
    16     1    20    1
    17    20    21    1
    18    21    22   am
    19    22    23    2
    20    22    25    1
    21    25    26   ar
    22    26    27   ar
    23    27    28   ar
    24    28    29    2
    25    28    30   ar
    26    30    31   ar
    27    31    33    1
    28    33    34    1
    29    33    35    1
    30    33    36    1
    31     8     9    1
    32     9    10    1
    33    19    13   ar
    34    10     5    1
    35    31    25   ar
    36     2     3    1
    37    21    24    1
    38    27    32    1
@<TRIPOS>MOLECULE
*****
 36 38 0 0 0
SMALL
GASTEIGER

@<TRIPOS>ATOM
      1 C         138.1891  140.3202  159.3057 C.3     1  UNL1        0.1459
      2 O         138.6635  139.4168  158.2062 O.3     1  UNL1       -0.3813
      3 H         138.2834  138.5327  158.3275 H       1  UNL1        0.2105
      4 C         137.2666  139.7925  160.3643 C.3     1  UNL1        0.1034
      5 C         138.8398  138.9217  164.4894 C.3     1  UNL1        0.1687
      6 C         138.2484  140.2652  164.1804 C.3     1  UNL1        0.0609
      7 C         137.7240  140.5554  162.8054 C.3     1  UNL1        0.0759
      8 N         137.7910  139.5023  161.7394 N.3     1  UNL1       -0.2704
      9 C         138.3823  138.1589  162.0483 C.3     1  UNL1        0.0759
     10 C         138.9068  137.8685  163.4234 C.3     1  UNL1        0.0609
     11 O         139.3642  138.6314  165.8644 O.3     1  UNL1       -0.4794
     12 C         142.3082  138.3360  165.3687 C.3     1  UNL1        0.0342
     13 C         141.8045  139.4283  166.2649 C.ar    1  UNL1        0.0129
     14 C         142.7727  140.3729  166.9132 C.ar    1  UNL1        0.0101
     15 C         142.2689  141.4652  167.8093 C.ar    1  UNL1        0.0576
     16 CL        143.2372  142.4098  168.4577 Cl      1  UNL1       -0.0823
     17 C         140.7969  141.6129  168.0572 C.ar    1  UNL1        0.0145
     18 C         139.8287  140.6684  167.4089 C.ar    1  UNL1        0.0374
     19 C         140.3325  139.5761  166.5128 C.ar    1  UNL1        0.1344
     20 C         138.6370  141.7511  159.3465 C.3     1  UNL1        0.1204
     21 N         139.6084  142.2031  160.3963 N.am    1  UNL1       -0.2985
     22 C         140.1201  143.6132  160.3873 C.2     1  UNL1        0.2473
     23 O         139.6605  144.5711  159.3284 O.2     1  UNL1       -0.2701
     24 H         139.9101  141.5744  161.0913 H       1  UNL1        0.1498
     25 C         141.0915  144.0653  161.4370 C.ar    1  UNL1        0.0744
     26 C         142.5670  143.9728  161.1833 C.ar    1  UNL1        0.0792
     27 N         143.5383  144.4249  162.2331 N.ar    1  UNL1       -0.3198
     28 C         143.0342  144.9694  163.5367 C.ar    1  UNL1        0.2577
     29 O         144.0056  145.4215  164.5864 O.2     1  UNL1       -0.2672
     30 C         141.5587  145.0619  163.7905 C.ar    1  UNL1        0.0646
     31 C         140.5874  144.6098  162.7407 C.ar    1  UNL1        0.0819
     32 H         144.5067  144.3643  162.0666 H       1  UNL1        0.1690
     33 C         139.1119  144.7022  162.9945 C.3     1  UNL1        0.4189
     34 F         137.6364  144.7946  163.2483 F       1  UNL1       -0.1659
     35 F         139.1584  143.4008  163.7389 F       1  UNL1       -0.1659
     36 F         139.0654  146.0037  162.2501 F       1  UNL1       -0.1659
@<TRIPOS>BOND
     1    12    13    1
     2    13    14   ar
     3    14    15   ar
     4    15    16    1
     5    15    17   ar
     6    17    18   ar
     7    18    19   ar
     8    19    11    1
     9    11     5    1
    10     5     6    1
    11     6     7    1
    12     7     8    1
    13     8     4    1
    14     4     1    1
    15     1     2    1
    16     1    20    1
    17    20    21    1
    18    21    22   am
    19    22    23    2
    20    22    25    1
    21    25    26   ar
    22    26    27   ar
    23    27    28   ar
    24    28    29    2
    25    28    30   ar
    26    30    31   ar
    27    31    33    1
    28    33    34    1
    29    33    35    1
    30    33    36    1
    31     8     9    1
    32     9    10    1
    33    19    13   ar
    34    10     5    1
    35    31    25   ar
    36     2     3    1
    37    21    24    1
    38    27    32    1
@<TRIPOS>MOLECULE
*****
 36 38 0 0 0
SMALL
GASTEIGER

@<TRIPOS>ATOM
      1 C         140.4522  139.8671  170.0583 C.3     1  UNL1        0.1459
      2 O         139.9471  139.3723  171.3812 O.3     1  UNL1       -0.3813
      3 H         140.6855  139.0065  171.8930 H       1  UNL1        0.2105
      4 C         141.9084  139.7464  169.7188 C.3     1  UNL1        0.1034
      5 C         143.4810  141.5181  165.8928 C.3     1  UNL1        0.1687
      6 C         143.1644  140.0537  165.9668 C.3     1  UNL1        0.0609
      7 C         142.6403  139.4632  167.2421 C.3     1  UNL1        0.0759
      8 N         142.4326  140.3370  168.4435 N.3     1  UNL1       -0.2704
      9 C         142.7490  141.8013  168.3696 C.3     1  UNL1        0.0759
     10 C         143.2733  142.3919  167.0942 C.3     1  UNL1        0.0609
     11 O         144.0052  142.1087  164.6175 O.3     1  UNL1       -0.4794
     12 C         142.5668  140.9338  162.2615 C.3     1  UNL1        0.0342
     13 C         142.3996  142.3869  162.5939 C.ar    1  UNL1        0.0129
     14 C         141.5133  143.2526  161.7484 C.ar    1  UNL1        0.0101
     15 C         141.3462  144.7057  162.0808 C.ar    1  UNL1        0.0576
     16 CL        140.4598  145.5714  161.2352 Cl      1  UNL1       -0.0823
     17 C         142.0653  145.2931  163.2588 C.ar    1  UNL1        0.0145
     18 C         142.9516  144.4275  164.1043 C.ar    1  UNL1        0.0374
     19 C         143.1188  142.9743  163.7719 C.ar    1  UNL1        0.1344
     20 C         139.5013  140.4826  169.0750 C.3     1  UNL1        0.1204
     21 N         139.6599  140.2118  167.6082 N.am    1  UNL1       -0.2985
     22 C         138.6866  139.3156  166.9014 C.2     1  UNL1        0.2473
     23 O         137.5548  138.6901  167.6614 O.2     1  UNL1       -0.2701
     24 H         140.4028  140.6224  167.1094 H       1  UNL1        0.1498
     25 C         138.8452  139.0449  165.4346 C.ar    1  UNL1        0.0744
     26 C         138.8972  137.6318  164.9340 C.ar    1  UNL1        0.0792
     27 N         139.0558  137.3611  163.4672 N.ar    1  UNL1       -0.3198
     28 C         139.1624  138.5035  162.5009 C.ar    1  UNL1        0.2577
     29 O         139.3210  138.2328  161.0341 O.2     1  UNL1       -0.2672
     30 C         139.1105  139.9166  163.0015 C.ar    1  UNL1        0.0646
     31 C         138.9519  140.1873  164.4683 C.ar    1  UNL1        0.0819
     32 H         139.0899  136.4337  163.1386 H       1  UNL1        0.1690
     33 C         138.9000  141.6003  164.9689 C.3     1  UNL1        0.4189
     34 F         138.8481  143.0134  165.4694 F       1  UNL1       -0.1659
     35 F         140.3955  141.6143  165.0844 F       1  UNL1       -0.1659
     36 F         137.4045  141.5863  164.8533 F       1  UNL1       -0.1659
@<TRIPOS>BOND
     1    12    13    1
     2    13    14   ar
     3    14    15   ar
     4    15    16    1
     5    15    17   ar
     6    17    18   ar
     7    18    19   ar
     8    19    11    1
     9    11     5    1
    10     5     6    1
    11     6     7    1
    12     7     8    1
    13     8     4    1
    14     4     1    1
    15     1     2    1
    16     1    20    1
    17    20    21    1
    18    21    22   am
    19    22    23    2
    20    22    25    1
    21    25    26   ar
    22    26    27   ar
    23    27    28   ar
    24    28    29    2
    25    28    30   ar
    26    30    31   ar
    27    31    33    1
    28    33    34    1
    29    33    35    1
    30    33    36    1
    31     8     9    1
    32     9    10    1
    33    19    13   ar
    34    10     5    1
    35    31    25   ar
    36     2     3    1
    37    21    24    1
    38    27    32    1
@<TRIPOS>MOLECULE
*****
 36 38 0 0 0
SMALL
GASTEIGER

@<TRIPOS>ATOM
      1 C         143.8309  139.8380  159.9335 C.3     1  UNL1        0.1459
      2 O         143.6363  139.4133  158.5081 O.3     1  UNL1       -0.3813
      3 H         143.8226  138.4650  158.4250 H       1  UNL1        0.2105
      4 C         144.2525  138.8334  160.9646 C.3     1  UNL1        0.1034
      5 C         142.1994  138.7203  164.9673 C.3     1  UNL1        0.1687
      6 C         143.5477  139.3640  164.8339 C.3     1  UNL1        0.0609
      7 C         144.2320  139.4017  163.4996 C.3     1  UNL1        0.0759
      8 N         143.5682  138.7957  162.2988 N.3     1  UNL1       -0.2704
      9 C         142.2199  138.1519  162.4322 C.3     1  UNL1        0.0759
     10 C         141.5355  138.1142  163.7665 C.3     1  UNL1        0.0609
     11 O         141.5151  138.6826  166.3015 O.3     1  UNL1       -0.4794
     12 C         139.5143  140.8910  165.9552 C.3     1  UNL1        0.0342
     13 C         140.5585  140.9863  167.0279 C.ar    1  UNL1        0.0129
     14 C         140.6022  142.1859  167.9274 C.ar    1  UNL1        0.0101
     15 C         141.6464  142.2812  169.0001 C.ar    1  UNL1        0.0576
     16 CL        141.6901  143.4808  169.8997 Cl      1  UNL1       -0.0823
     17 C         142.6468  141.1770  169.1733 C.ar    1  UNL1        0.0145
     18 C         142.6030  139.9775  168.2738 C.ar    1  UNL1        0.0374
     19 C         141.5588  139.8822  167.2011 C.ar    1  UNL1        0.1344
     20 C         143.6039  141.2673  160.3278 C.3     1  UNL1        0.1204
     21 N         142.4565  141.6245  161.2255 N.am    1  UNL1       -0.2985
     22 C         142.1331  143.0648  161.4923 C.2     1  UNL1        0.2473
     23 O         142.9572  144.1478  160.8614 O.2     1  UNL1       -0.2701
     24 H         141.9157  140.9137  161.6395 H       1  UNL1        0.1498
     25 C         140.9857  143.4220  162.3899 C.ar    1  UNL1        0.0744
     26 C         139.5776  143.3244  161.8821 C.ar    1  UNL1        0.0792
     27 N         138.4302  143.6816  162.7799 N.ar    1  UNL1       -0.3198
     28 C         138.6908  144.1364  164.1852 C.ar    1  UNL1        0.2577
     29 O         137.5434  144.4936  165.0829 O.2     1  UNL1       -0.2672
     30 C         140.0989  144.2340  164.6930 C.ar    1  UNL1        0.0646
     31 C         141.2463  143.8768  163.7954 C.ar    1  UNL1        0.0819
     32 H         137.5060  143.6175  162.4466 H       1  UNL1        0.1690
     33 C         142.6544  143.9744  164.3031 C.3     1  UNL1        0.4189
     34 F         144.0624  144.0720  164.8109 F       1  UNL1       -0.1659
     35 F         142.7398  145.3832  163.7953 F       1  UNL1       -0.1659
     36 F         142.5689  142.5656  164.8110 F       1  UNL1       -0.1659
@<TRIPOS>BOND
     1    12    13    1
     2    13    14   ar
     3    14    15   ar
     4    15    16    1
     5    15    17   ar
     6    17    18   ar
     7    18    19   ar
     8    19    11    1
     9    11     5    1
    10     5     6    1
    11     6     7    1
    12     7     8    1
    13     8     4    1
    14     4     1    1
    15     1     2    1
    16     1    20    1
    17    20    21    1
    18    21    22   am
    19    22    23    2
    20    22    25    1
    21    25    26   ar
    22    26    27   ar
    23    27    28   ar
    24    28    29    2
    25    28    30   ar
    26    30    31   ar
    27    31    33    1
    28    33    34    1
    29    33    35    1
    30    33    36    1
    31     8     9    1
    32     9    10    1
    33    19    13   ar
    34    10     5    1
    35    31    25   ar
    36     2     3    1
    37    21    24    1
    38    27    32    1
@<TRIPOS>MOLECULE
*****
 36 38 0 0 0
SMALL
GASTEIGER

@<TRIPOS>ATOM
      1 C         138.8229  141.7300  158.3628 C.3     1  UNL1        0.1459
      2 O         139.2302  142.2130  157.0024 O.3     1  UNL1       -0.3813
      3 H         139.1819  141.4785  156.3707 H       1  UNL1        0.2105
      4 C         138.4258  140.2973  158.5622 C.3     1  UNL1        0.1034
      5 C         139.3845  138.2147  162.4344 C.3     1  UNL1        0.1687
      6 C         140.4350  138.3422  161.3713 C.3     1  UNL1        0.0609
      7 C         140.1154  139.0364  160.0805 C.3     1  UNL1        0.0759
      8 N         138.7454  139.6031  159.8529 N.3     1  UNL1       -0.2704
      9 C         137.6949  139.4756  160.9160 C.3     1  UNL1        0.0759
     10 C         138.0144  138.7814  162.2068 C.3     1  UNL1        0.0609
     11 O         139.7040  137.5205  163.7251 O.3     1  UNL1       -0.4794
     12 C         142.1421  138.9328  164.7553 C.3     1  UNL1        0.0342
     13 C         140.8610  138.9832  165.5340 C.ar    1  UNL1        0.0129
     14 C         140.7990  139.7396  166.8278 C.ar    1  UNL1        0.0101
     15 C         139.5180  139.7899  167.6065 C.ar    1  UNL1        0.0576
     16 CL        139.4560  140.5464  168.9004 Cl      1  UNL1       -0.0823
     17 C         138.2990  139.0838  167.0915 C.ar    1  UNL1        0.0145
     18 C         138.3610  138.3273  165.7977 C.ar    1  UNL1        0.0374
     19 C         139.6420  138.2770  165.0190 C.ar    1  UNL1        0.1344
     20 C         138.8126  142.6797  159.5238 C.3     1  UNL1        0.1204
     21 N         139.9685  142.7087  160.4793 N.am    1  UNL1       -0.2985
     22 C         139.9775  143.6872  161.6161 C.2     1  UNL1        0.2473
     23 O         138.8306  144.6367  161.7975 O.2     1  UNL1       -0.2701
     24 H         140.7213  142.0855  160.3602 H       1  UNL1        0.1498
     25 C         141.1335  143.7163  162.5715 C.ar    1  UNL1        0.0744
     26 C         142.3928  144.4433  162.2033 C.ar    1  UNL1        0.0792
     27 N         143.5488  144.4723  163.1588 N.ar    1  UNL1       -0.3198
     28 C         143.4455  143.7743  164.4825 C.ar    1  UNL1        0.2577
     29 O         144.6014  143.8034  165.4379 O.2     1  UNL1       -0.2672
     30 C         142.1862  143.0473  164.8507 C.ar    1  UNL1        0.0646
     31 C         141.0302  143.0183  163.8953 C.ar    1  UNL1        0.0819
     32 H         144.3754  144.9494  162.9171 H       1  UNL1        0.1690
     33 C         139.7709  142.2913  164.2635 C.3     1  UNL1        0.4189
     34 F         138.5116  141.5643  164.6318 F       1  UNL1       -0.1659
     35 F         139.4036  143.4027  165.2015 F       1  UNL1       -0.1659
     36 F         140.1382  141.1799  163.3256 F       1  UNL1       -0.1659
@<TRIPOS>BOND
     1    12    13    1
     2    13    14   ar
     3    14    15   ar
     4    15    16    1
     5    15    17   ar
     6    17    18   ar
     7    18    19   ar
     8    19    11    1
     9    11     5    1
    10     5     6    1
    11     6     7    1
    12     7     8    1
    13     8     4    1
    14     4     1    1
    15     1     2    1
    16     1    20    1
    17    20    21    1
    18    21    22   am
    19    22    23    2
    20    22    25    1
    21    25    26   ar
    22    26    27   ar
    23    27    28   ar
    24    28    29    2
    25    28    30   ar
    26    30    31   ar
    27    31    33    1
    28    33    34    1
    29    33    35    1
    30    33    36    1
    31     8     9    1
    32     9    10    1
    33    19    13   ar
    34    10     5    1
    35    31    25   ar
    36     2     3    1
    37    21    24    1
    38    27    32    1
