@<TRIPOS>MOLECULE
*****
 33 36 0 0 0
SMALL
GASTEIGER

@<TRIPOS>ATOM
      1 C         142.7789  137.3339  158.1599 C.3     1  UNL1        0.1747
      2 N         143.1172  137.4093  160.7347 N.am    1  UNL1       -0.3018
      3 C         142.7198  138.0860  159.4563 C.2     1  UNL1        0.2425
      4 O         142.2634  139.5147  159.4744 O.2     1  UNL1       -0.2733
      5 H         143.4168  136.4716  160.7228 H       1  UNL1        0.1495
      6 N         142.9747  139.2252  163.8646 N.3     1  UNL1       -0.2711
      7 C         144.0443  138.9374  162.8531 C.3     1  UNL1        0.0933
      8 C         143.0582  138.1615  162.0311 C.3     1  UNL1        0.1035
      9 C         141.9886  138.4494  163.0426 C.3     1  UNL1        0.0933
     10 C         142.7975  141.4817  167.7540 C.3     1  UNL1        0.0652
     11 C         142.7077  139.9844  167.7508 C.3     1  UNL1        0.0144
     12 C         142.7668  139.2322  166.4543 C.3     1  UNL1        0.0170
     13 C         142.9156  139.9774  165.1611 C.3     1  UNL1        0.0577
     14 C         143.0054  141.4747  165.1642 C.3     1  UNL1        0.0170
     15 C         142.9464  142.2268  166.4606 C.3     1  UNL1        0.0144
     16 C         142.6795  142.9861  170.3467 C.1     1  UNL1       -0.0142
     17 C         142.7384  142.2339  169.0503 C.1     1  UNL1       -0.0789
     18 N         141.5548  137.2246  157.2997 N.pl3   1  UNL1       -0.3093
     19 H         140.7596  137.7678  157.5040 H       1  UNL1        0.1487
     20 C         141.5424  136.2876  156.1284 C.ar    1  UNL1        0.1500
     21 N         140.7307  136.4504  154.8776 N.ar    1  UNL1       -0.1544
     22 N         141.0262  135.2867  153.9785 N.ar    1  UNL1       -0.2476
     23 C         140.4317  135.0471  152.6224 C.3     1  UNL1        0.1537
     24 C         142.0206  134.4046  154.6737 C.ar    1  UNL1        0.0807
     25 C         142.6768  133.1181  154.2684 C.ar    1  UNL1        0.0188
     26 C         143.6520  132.4502  155.1918 C.ar    1  UNL1        0.0054
     27 C         143.9710  133.0688  156.5206 C.ar    1  UNL1        0.0716
     28 C         143.3148  134.3553  156.9259 C.ar    1  UNL1        0.0082
     29 C         142.3396  135.0232  156.0024 C.ar    1  UNL1        0.0503
     30 C         144.9463  132.4008  157.4441 C.3     1  UNL1        0.4186
     31 F         145.9215  131.7328  158.3674 F       1  UNL1       -0.1659
     32 F         144.5739  133.3627  158.5331 F       1  UNL1       -0.1659
     33 F         145.3186  131.4389  156.3550 F       1  UNL1       -0.1659
@<TRIPOS>BOND
     1    16    17    3
     2    10    17    1
     3    10    11    1
     4    11    12    1
     5    12    13    1
     6    13     6    1
     7     6     7    1
     8     7     8    1
     9     8     2    1
    10     2     3   am
    11     3     4    2
    12     3     1    1
    13     1    18    1
    14    18    20    1
    15    20    21   ar
    16    21    22   ar
    17    22    23    1
    18    22    24   ar
    19    24    25   ar
    20    25    26   ar
    21    26    27   ar
    22    27    30    1
    23    30    31    1
    24    30    32    1
    25    30    33    1
    26    27    28   ar
    27    28    29   ar
    28     8     9    1
    29    13    14    1
    30    14    15    1
    31    15    10    1
    32     9     6    1
    33    29    20   ar
    34    29    24   ar
    35     2     5    1
    36    18    19    1
@<TRIPOS>MOLECULE
*****
 33 36 0 0 0
SMALL
GASTEIGER

@<TRIPOS>ATOM
      1 C         142.8280  138.3714  157.0115 C.3     1  UNL1        0.1747
      2 N         141.1407  138.5265  158.9809 N.am    1  UNL1       -0.3018
      3 C         142.5473  138.6065  158.4661 C.2     1  UNL1        0.2425
      4 O         143.6732  138.9215  159.4059 O.2     1  UNL1       -0.2733
      5 H         140.4018  138.3198  158.3641 H       1  UNL1        0.1495
      6 N         140.4631  139.0939  162.4927 N.3     1  UNL1       -0.2711
      7 C         140.9945  137.9457  161.6871 C.3     1  UNL1        0.0933
      8 C         140.8600  138.7616  160.4355 C.3     1  UNL1        0.1035
      9 C         140.3287  139.9098  161.2412 C.3     1  UNL1        0.0933
     10 C         139.6210  139.7992  166.8567 C.3     1  UNL1        0.0652
     11 C         138.4986  139.4587  165.9217 C.3     1  UNL1        0.0144
     12 C         138.7793  139.2236  164.4671 C.3     1  UNL1        0.0170
     13 C         140.1824  139.3290  163.9474 C.3     1  UNL1        0.0577
     14 C         141.3049  139.6695  164.8824 C.3     1  UNL1        0.0170
     15 C         141.0242  139.9045  166.3369 C.3     1  UNL1        0.0144
     16 C         139.0600  140.2694  169.7659 C.1     1  UNL1       -0.0142
     17 C         139.3405  140.0342  168.3113 C.1     1  UNL1       -0.0789
     18 N         143.6931  137.2203  156.5910 N.pl3   1  UNL1       -0.3093
     19 H         144.5805  137.0966  156.9990 H       1  UNL1        0.1487
     20 C         143.2060  136.2575  155.5489 C.ar    1  UNL1        0.1500
     21 N         142.5201  136.6204  154.2652 N.ar    1  UNL1       -0.1544
     22 N         142.2096  135.3500  153.5306 N.ar    1  UNL1       -0.2476
     23 C         141.5252  135.2458  152.1998 C.3     1  UNL1        0.1537
     24 C         142.7035  134.2021  154.3602 C.ar    1  UNL1        0.0807
     25 C         142.6720  132.7185  154.1409 C.ar    1  UNL1        0.0188
     26 C         143.2564  131.7959  155.1691 C.ar    1  UNL1        0.0054
     27 C         143.8723  132.3568  156.4166 C.ar    1  UNL1        0.0716
     28 C         143.9037  133.8404  156.6358 C.ar    1  UNL1        0.0082
     29 C         143.3193  134.7630  155.6076 C.ar    1  UNL1        0.0503
     30 C         144.4567  131.4341  157.4448 C.3     1  UNL1        0.4186
     31 F         145.0410  130.5114  158.4729 F       1  UNL1       -0.1659
     32 F         145.7960  132.0861  157.2686 F       1  UNL1       -0.1659
     33 F         143.1174  130.7822  157.6209 F       1  UNL1       -0.1659
@<TRIPOS>BOND
     1    16    17    3
     2    10    17    1
     3    10    11    1
     4    11    12    1
     5    12    13    1
     6    13     6    1
     7     6     7    1
     8     7     8    1
     9     8     2    1
    10     2     3   am
    11     3     4    2
    12     3     1    1
    13     1    18    1
    14    18    20    1
    15    20    21   ar
    16    21    22   ar
    17    22    23    1
    18    22    24   ar
    19    24    25   ar
    20    25    26   ar
    21    26    27   ar
    22    27    30    1
    23    30    31    1
    24    30    32    1
    25    30    33    1
    26    27    28   ar
    27    28    29   ar
    28     8     9    1
    29    13    14    1
    30    14    15    1
    31    15    10    1
    32     9     6    1
    33    29    20   ar
    34    29    24   ar
    35     2     5    1
    36    18    19    1
@<TRIPOS>MOLECULE
*****
 33 36 0 0 0
SMALL
GASTEIGER

@<TRIPOS>ATOM
      1 C         142.6164  137.1871  156.6035 C.3     1  UNL1        0.1747
      2 N         143.1091  137.0576  159.1511 N.am    1  UNL1       -0.3018
      3 C         142.5575  137.8011  157.9709 C.2     1  UNL1        0.2425
      4 O         141.9472  139.1585  158.1579 O.2     1  UNL1       -0.2733
      5 H         143.5096  136.1667  159.0283 H       1  UNL1        0.1495
      6 N         142.9670  138.5399  162.4522 N.3     1  UNL1       -0.2711
      7 C         141.9617  137.9381  161.5155 C.3     1  UNL1        0.0933
      8 C         143.0503  137.6716  160.5184 C.3     1  UNL1        0.1035
      9 C         144.0554  138.2734  161.4551 C.3     1  UNL1        0.0933
     10 C         142.7905  140.3818  166.5542 C.3     1  UNL1        0.0652
     11 C         143.0113  141.2500  165.3510 C.3     1  UNL1        0.0144
     12 C         143.0701  140.6360  163.9837 C.3     1  UNL1        0.0170
     13 C         142.9081  139.1539  163.8195 C.3     1  UNL1        0.0577
     14 C         142.6874  138.2857  165.0226 C.3     1  UNL1        0.0170
     15 C         142.6286  138.8996  166.3899 C.3     1  UNL1        0.0144
     16 C         142.6729  141.6094  169.2889 C.1     1  UNL1       -0.0142
     17 C         142.7317  140.9956  167.9215 C.1     1  UNL1       -0.0789
     18 N         141.9384  135.8751  156.3407 N.pl3   1  UNL1       -0.3093
     19 H         141.0132  135.8577  156.0045 H       1  UNL1        0.1487
     20 C         142.6700  134.5896  156.5902 C.ar    1  UNL1        0.1500
     21 N         143.8787  134.4179  157.4617 N.ar    1  UNL1       -0.1544
     22 N         144.2771  132.9723  157.4221 N.ar    1  UNL1       -0.2476
     23 C         145.4348  132.3565  158.1505 C.3     1  UNL1        0.1537
     24 C         143.3146  132.2506  156.5261 C.ar    1  UNL1        0.0807
     25 C         143.2143  130.8124  156.1119 C.ar    1  UNL1        0.0188
     26 C         142.1208  130.3738  155.1837 C.ar    1  UNL1        0.0054
     27 C         141.1275  131.3734  154.6696 C.ar    1  UNL1        0.0716
     28 C         141.2278  132.8116  155.0837 C.ar    1  UNL1        0.0082
     29 C         142.3214  133.2502  156.0119 C.ar    1  UNL1        0.0503
     30 C         140.0339  130.9347  153.7412 C.3     1  UNL1        0.4186
     31 F         138.9403  130.4960  152.8130 F       1  UNL1       -0.1659
     32 F         140.8351  131.4180  152.5689 F       1  UNL1       -0.1659
     33 F         139.2327  130.4514  154.9136 F       1  UNL1       -0.1659
@<TRIPOS>BOND
     1    16    17    3
     2    10    17    1
     3    10    11    1
     4    11    12    1
     5    12    13    1
     6    13     6    1
     7     6     7    1
     8     7     8    1
     9     8     2    1
    10     2     3   am
    11     3     4    2
    12     3     1    1
    13     1    18    1
    14    18    20    1
    15    20    21   ar
    16    21    22   ar
    17    22    23    1
    18    22    24   ar
    19    24    25   ar
    20    25    26   ar
    21    26    27   ar
    22    27    30    1
    23    30    31    1
    24    30    32    1
    25    30    33    1
    26    27    28   ar
    27    28    29   ar
    28     8     9    1
    29    13    14    1
    30    14    15    1
    31    15    10    1
    32     9     6    1
    33    29    20   ar
    34    29    24   ar
    35     2     5    1
    36    18    19    1
@<TRIPOS>MOLECULE
*****
 33 36 0 0 0
SMALL
GASTEIGER

@<TRIPOS>ATOM
      1 C         139.2102  140.7629  158.8089 C.3     1  UNL1        0.1747
      2 N         140.6852  139.2440  157.3032 N.am    1  UNL1       -0.3018
      3 C         139.8076  139.4206  158.5068 C.2     1  UNL1        0.2425
      4 O         139.5274  138.2549  159.4083 O.2     1  UNL1       -0.2733
      5 H         140.8691  140.0091  156.7116 H       1  UNL1        0.1495
      6 N         142.1275  136.0033  156.5740 N.3     1  UNL1       -0.2711
      7 C         142.5331  137.1810  157.4098 C.3     1  UNL1        0.0933
      8 C         141.2826  137.9017  157.0011 C.3     1  UNL1        0.1035
      9 C         140.8771  136.7240  156.1654 C.3     1  UNL1        0.0933
     10 C         143.9197  131.9763  155.6678 C.3     1  UNL1        0.0652
     11 C         143.0035  132.6298  154.6761 C.3     1  UNL1        0.0144
     12 C         142.4061  133.9721  154.9781 C.3     1  UNL1        0.0170
     13 C         142.7249  134.6610  156.2719 C.3     1  UNL1        0.0577
     14 C         143.6411  134.0074  157.2636 C.3     1  UNL1        0.0170
     15 C         144.2385  132.6652  156.9616 C.3     1  UNL1        0.0144
     16 C         145.1147  129.2917  155.0639 C.1     1  UNL1       -0.0142
     17 C         144.5171  130.6340  155.3658 C.1     1  UNL1       -0.0789
     18 N         138.1348  140.8888  159.8470 N.pl3   1  UNL1       -0.3093
     19 H         137.2880  140.3980  159.7406 H       1  UNL1        0.1487
     20 C         138.3495  141.7625  161.0472 C.ar    1  UNL1        0.1500
     21 N         138.4942  143.2555  161.0364 N.ar    1  UNL1       -0.1544
     22 N         138.6913  143.7123  162.4515 N.ar    1  UNL1       -0.2476
     23 C         138.8784  145.1307  162.9021 C.3     1  UNL1        0.1537
     24 C         138.6684  142.5017  163.3369 C.ar    1  UNL1        0.0807
     25 C         138.8127  142.3409  164.8212 C.ar    1  UNL1        0.0188
     26 C         138.7457  140.9751  165.4377 C.ar    1  UNL1        0.0054
     27 C         138.5345  139.7701  164.5698 C.ar    1  UNL1        0.0716
     28 C         138.3902  139.9308  163.0854 C.ar    1  UNL1        0.0082
     29 C         138.4572  141.2966  162.4690 C.ar    1  UNL1        0.0503
     30 C         138.4675  138.4042  165.1863 C.3     1  UNL1        0.4186
     31 F         138.4005  137.0384  165.8028 F       1  UNL1       -0.1659
     32 F         139.3133  137.8603  164.0733 F       1  UNL1       -0.1659
     33 F         137.6216  138.9481  166.2992 F       1  UNL1       -0.1659
@<TRIPOS>BOND
     1    16    17    3
     2    10    17    1
     3    10    11    1
     4    11    12    1
     5    12    13    1
     6    13     6    1
     7     6     7    1
     8     7     8    1
     9     8     2    1
    10     2     3   am
    11     3     4    2
    12     3     1    1
    13     1    18    1
    14    18    20    1
    15    20    21   ar
    16    21    22   ar
    17    22    23    1
    18    22    24   ar
    19    24    25   ar
    20    25    26   ar
    21    26    27   ar
    22    27    30    1
    23    30    31    1
    24    30    32    1
    25    30    33    1
    26    27    28   ar
    27    28    29   ar
    28     8     9    1
    29    13    14    1
    30    14    15    1
    31    15    10    1
    32     9     6    1
    33    29    20   ar
    34    29    24   ar
    35     2     5    1
    36    18    19    1
@<TRIPOS>MOLECULE
*****
 33 36 0 0 0
SMALL
GASTEIGER

@<TRIPOS>ATOM
      1 C         140.0736  138.0818  158.1126 C.3     1  UNL1        0.1747
      2 N         139.2815  138.0481  160.5867 N.am    1  UNL1       -0.3018
      3 C         140.2868  138.4538  159.5500 C.2     1  UNL1        0.2425
      4 O         141.5053  139.2314  159.9508 O.2     1  UNL1       -0.2733
      5 H         138.4817  137.5377  160.3236 H       1  UNL1        0.1495
      6 N         139.7961  138.9461  164.0569 N.3     1  UNL1       -0.2711
      7 C         139.3666  139.6831  162.8231 C.3     1  UNL1        0.0933
      8 C         139.4947  138.4200  162.0241 C.3     1  UNL1        0.1035
      9 C         139.9242  137.6831  163.2579 C.3     1  UNL1        0.0933
     10 C         140.4357  140.0619  168.3693 C.3     1  UNL1        0.0652
     11 C         139.0538  139.7610  167.8694 C.3     1  UNL1        0.0144
     12 C         138.8406  139.3891  166.4320 C.3     1  UNL1        0.0170
     13 C         140.0093  139.3180  165.4944 C.3     1  UNL1        0.0577
     14 C         141.3912  139.6189  165.9942 C.3     1  UNL1        0.0170
     15 C         141.6044  139.9908  167.4316 C.3     1  UNL1        0.0144
     16 C         140.8623  140.8059  171.2440 C.1     1  UNL1       -0.0142
     17 C         140.6490  140.4338  169.8066 C.1     1  UNL1       -0.0789
     18 N         141.2444  137.9947  157.1788 N.pl3   1  UNL1       -0.3093
     19 H         142.0272  138.5759  157.3153 H       1  UNL1        0.1487
     20 C         141.2224  137.0220  156.0372 C.ar    1  UNL1        0.1500
     21 N         140.4249  137.1624  154.7745 N.ar    1  UNL1       -0.1544
     22 N         140.7037  135.9653  153.9147 N.ar    1  UNL1       -0.2476
     23 C         140.1159  135.6957  152.5613 C.3     1  UNL1        0.1537
     24 C         141.6734  135.0850  154.6460 C.ar    1  UNL1        0.0807
     25 C         142.3059  133.7732  154.2869 C.ar    1  UNL1        0.0188
     26 C         143.2590  133.1144  155.2396 C.ar    1  UNL1        0.0054
     27 C         143.5795  133.7675  156.5514 C.ar    1  UNL1        0.0716
     28 C         142.9470  135.0794  156.9105 C.ar    1  UNL1        0.0082
     29 C         141.9940  135.7381  155.9578 C.ar    1  UNL1        0.0503
     30 C         144.5327  133.1087  157.5041 C.3     1  UNL1        0.4186
     31 F         145.4858  132.4499  158.4567 F       1  UNL1       -0.1659
     32 F         143.9862  133.9406  158.6262 F       1  UNL1       -0.1659
     33 F         145.0792  132.2768  156.3819 F       1  UNL1       -0.1659
@<TRIPOS>BOND
     1    16    17    3
     2    10    17    1
     3    10    11    1
     4    11    12    1
     5    12    13    1
     6    13     6    1
     7     6     7    1
     8     7     8    1
     9     8     2    1
    10     2     3   am
    11     3     4    2
    12     3     1    1
    13     1    18    1
    14    18    20    1
    15    20    21   ar
    16    21    22   ar
    17    22    23    1
    18    22    24   ar
    19    24    25   ar
    20    25    26   ar
    21    26    27   ar
    22    27    30    1
    23    30    31    1
    24    30    32    1
    25    30    33    1
    26    27    28   ar
    27    28    29   ar
    28     8     9    1
    29    13    14    1
    30    14    15    1
    31    15    10    1
    32     9     6    1
    33    29    20   ar
    34    29    24   ar
    35     2     5    1
    36    18    19    1
@<TRIPOS>MOLECULE
*****
 33 36 0 0 0
SMALL
GASTEIGER

@<TRIPOS>ATOM
      1 C         143.0938  143.5748  158.6370 C.3     1  UNL1        0.1747
      2 N         143.6325  141.0349  158.5474 N.am    1  UNL1       -0.3018
      3 C         142.7876  142.1993  158.1229 C.2     1  UNL1        0.2425
      4 O         141.6367  141.9883  157.1845 O.2     1  UNL1       -0.2733
      5 H         144.3879  141.1734  159.1633 H       1  UNL1        0.1495
      6 N         142.8935  137.7141  157.3061 N.3     1  UNL1       -0.2711
      7 C         143.4944  138.9566  156.7187 C.3     1  UNL1        0.0933
      8 C         143.3264  139.6594  158.0333 C.3     1  UNL1        0.1035
      9 C         142.7254  138.4169  158.6206 C.3     1  UNL1        0.0933
     10 C         141.9750  133.5876  155.7638 C.3     1  UNL1        0.0652
     11 C         143.0664  133.7851  156.7738 C.3     1  UNL1        0.0144
     12 C         143.3725  135.1606  157.2879 C.3     1  UNL1        0.0170
     13 C         142.5873  136.3386  156.7920 C.3     1  UNL1        0.0577
     14 C         141.4960  136.1411  155.7821 C.3     1  UNL1        0.0170
     15 C         141.1899  134.7657  155.2680 C.3     1  UNL1        0.0144
     16 C         141.3626  130.8368  154.7354 C.1     1  UNL1       -0.0142
     17 C         141.6688  132.2122  155.2497 C.1     1  UNL1       -0.0789
     18 N         142.5504  144.0180  159.9632 N.pl3   1  UNL1       -0.3093
     19 H         141.8314  144.6895  160.0010 H       1  UNL1        0.1487
     20 C         143.1026  143.4381  161.2316 C.ar    1  UNL1        0.1500
     21 N         144.4122  142.7213  161.3764 N.ar    1  UNL1       -0.1544
     22 N         144.5610  142.3134  162.8122 N.ar    1  UNL1       -0.2476
     23 C         145.7234  141.5711  163.4019 C.3     1  UNL1        0.1537
     24 C         143.3434  142.7782  163.5547 C.ar    1  UNL1        0.0807
     25 C         142.9389  142.6582  164.9941 C.ar    1  UNL1        0.0188
     26 C         141.6331  143.2334  165.4567 C.ar    1  UNL1        0.0054
     27 C         140.7317  143.9285  164.4798 C.ar    1  UNL1        0.0716
     28 C         141.1362  144.0484  163.0404 C.ar    1  UNL1        0.0082
     29 C         142.4420  143.4733  162.5778 C.ar    1  UNL1        0.0503
     30 C         139.4258  144.5036  164.9424 C.3     1  UNL1        0.4186
     31 F         138.1200  145.0788  165.4049 F       1  UNL1       -0.1659
     32 F         139.5827  143.8014  166.2585 F       1  UNL1       -0.1659
     33 F         139.2690  145.2058  163.6263 F       1  UNL1       -0.1659
@<TRIPOS>BOND
     1    16    17    3
     2    10    17    1
     3    10    11    1
     4    11    12    1
     5    12    13    1
     6    13     6    1
     7     6     7    1
     8     7     8    1
     9     8     2    1
    10     2     3   am
    11     3     4    2
    12     3     1    1
    13     1    18    1
    14    18    20    1
    15    20    21   ar
    16    21    22   ar
    17    22    23    1
    18    22    24   ar
    19    24    25   ar
    20    25    26   ar
    21    26    27   ar
    22    27    30    1
    23    30    31    1
    24    30    32    1
    25    30    33    1
    26    27    28   ar
    27    28    29   ar
    28     8     9    1
    29    13    14    1
    30    14    15    1
    31    15    10    1
    32     9     6    1
    33    29    20   ar
    34    29    24   ar
    35     2     5    1
    36    18    19    1
@<TRIPOS>MOLECULE
*****
 33 36 0 0 0
SMALL
GASTEIGER

@<TRIPOS>ATOM
      1 C         143.7176  141.7868  157.6286 C.3     1  UNL1        0.1747
      2 N         143.1824  139.5321  156.4542 N.am    1  UNL1       -0.3018
      3 C         143.6867  140.2873  157.6481 C.2     1  UNL1        0.2425
      4 O         144.1600  139.5430  158.8613 O.2     1  UNL1       -0.2733
      5 H         142.8717  140.0206  155.6579 H       1  UNL1        0.1495
      6 N         143.1075  135.9118  156.5013 N.3     1  UNL1       -0.2711
      7 C         142.3992  136.9972  157.2563 C.3     1  UNL1        0.0933
      8 C         143.1514  138.0325  156.4737 C.3     1  UNL1        0.1035
      9 C         143.8597  136.9471  155.7187 C.3     1  UNL1        0.0933
     10 C         143.0147  131.4131  156.5596 C.3     1  UNL1        0.0652
     11 C         144.0340  132.1528  157.3743 C.3     1  UNL1        0.0144
     12 C         144.0649  133.6524  157.3549 C.3     1  UNL1        0.0170
     13 C         143.0766  134.4122  156.5207 C.3     1  UNL1        0.0577
     14 C         142.0573  133.6725  155.7060 C.3     1  UNL1        0.0170
     15 C         142.0263  132.1730  155.7254 C.3     1  UNL1        0.0144
     16 C         142.9527  128.4140  156.5983 C.1     1  UNL1       -0.0142
     17 C         142.9836  129.9136  156.5789 C.1     1  UNL1       -0.0789
     18 N         144.3250  142.5394  158.7753 N.pl3   1  UNL1       -0.3093
     19 H         145.2951  142.7061  158.7960 H       1  UNL1        0.1487
     20 C         143.4544  143.0379  159.8905 C.ar    1  UNL1        0.1500
     21 N         142.4306  144.1295  159.7891 N.ar    1  UNL1       -0.1544
     22 N         141.7982  144.2985  161.1388 N.ar    1  UNL1       -0.2476
     23 C         140.7218  145.2820  161.4911 C.3     1  UNL1        0.1537
     24 C         142.4311  143.3114  162.0742 C.ar    1  UNL1        0.0807
     25 C         142.2076  143.0213  163.5288 C.ar    1  UNL1        0.0188
     26 C         143.0077  141.9521  164.2118 C.ar    1  UNL1        0.0054
     27 C         144.0313  141.1730  163.4403 C.ar    1  UNL1        0.0716
     28 C         144.2548  141.4631  161.9858 C.ar    1  UNL1        0.0082
     29 C         143.4547  142.5323  161.3027 C.ar    1  UNL1        0.0503
     30 C         144.8315  140.1038  164.1235 C.3     1  UNL1        0.4186
     31 F         145.6315  139.0346  164.8066 F       1  UNL1       -0.1659
     32 F         146.0213  141.0164  164.1584 F       1  UNL1       -0.1659
     33 F         143.6416  139.1912  164.0886 F       1  UNL1       -0.1659
@<TRIPOS>BOND
     1    16    17    3
     2    10    17    1
     3    10    11    1
     4    11    12    1
     5    12    13    1
     6    13     6    1
     7     6     7    1
     8     7     8    1
     9     8     2    1
    10     2     3   am
    11     3     4    2
    12     3     1    1
    13     1    18    1
    14    18    20    1
    15    20    21   ar
    16    21    22   ar
    17    22    23    1
    18    22    24   ar
    19    24    25   ar
    20    25    26   ar
    21    26    27   ar
    22    27    30    1
    23    30    31    1
    24    30    32    1
    25    30    33    1
    26    27    28   ar
    27    28    29   ar
    28     8     9    1
    29    13    14    1
    30    14    15    1
    31    15    10    1
    32     9     6    1
    33    29    20   ar
    34    29    24   ar
    35     2     5    1
    36    18    19    1
@<TRIPOS>MOLECULE
*****
 33 36 0 0 0
SMALL
GASTEIGER

@<TRIPOS>ATOM
      1 C         144.8967  139.1397  164.8349 C.3     1  UNL1        0.1747
      2 N         144.2607  141.3995  163.7221 N.am    1  UNL1       -0.3018
      3 C         144.2818  139.8999  163.6974 C.2     1  UNL1        0.2425
      4 O         143.6881  139.1605  162.5351 O.2     1  UNL1       -0.2733
      5 H         144.6504  141.8848  164.4849 H       1  UNL1        0.1495
      6 N         142.7764  143.2349  160.9758 N.3     1  UNL1       -0.2711
      7 C         143.9876  143.4173  161.8416 C.3     1  UNL1        0.0933
      8 C         143.6459  142.1597  162.5845 C.3     1  UNL1        0.1035
      9 C         142.4347  141.9774  161.7187 C.3     1  UNL1        0.0933
     10 C         140.9318  145.5156  157.5631 C.3     1  UNL1        0.0652
     11 C         142.1478  144.6690  157.3291 C.3     1  UNL1        0.0144
     12 C         142.7626  143.9088  158.4666 C.3     1  UNL1        0.0170
     13 C         142.1615  143.9951  159.8382 C.3     1  UNL1        0.0577
     14 C         140.9456  144.8417  160.0722 C.3     1  UNL1        0.0170
     15 C         140.3308  145.6019  158.9348 C.3     1  UNL1        0.0144
     16 C         139.7019  147.0361  155.2883 C.1     1  UNL1       -0.0142
     17 C         140.3169  146.2758  156.4257 C.1     1  UNL1       -0.0789
     18 N         144.0193  138.4448  165.8337 N.pl3   1  UNL1       -0.3093
     19 H         144.3814  137.7100  166.3798 H       1  UNL1        0.1487
     20 C         142.5904  138.8694  166.0004 C.ar    1  UNL1        0.1500
     21 N         141.4141  138.3204  165.2489 N.ar    1  UNL1       -0.1544
     22 N         140.1836  139.0293  165.7320 N.ar    1  UNL1       -0.2476
     23 C         138.7831  138.7927  165.2497 C.3     1  UNL1        0.1537
     24 C         140.5995  140.0166  166.7819 C.ar    1  UNL1        0.0807
     25 C         139.8159  140.9927  167.6084 C.ar    1  UNL1        0.0188
     26 C         140.5198  141.8700  168.6007 C.ar    1  UNL1        0.0054
     27 C         142.0073  141.7712  168.7666 C.ar    1  UNL1        0.0716
     28 C         142.7909  140.7951  167.9402 C.ar    1  UNL1        0.0082
     29 C         142.0870  139.9177  166.9478 C.ar    1  UNL1        0.0503
     30 C         142.7112  142.6486  169.7590 C.3     1  UNL1        0.4186
     31 F         143.4151  143.5259  170.7514 F       1  UNL1       -0.1659
     32 F         141.5364  143.5812  169.7678 F       1  UNL1       -0.1659
     33 F         143.8859  141.7160  169.7502 F       1  UNL1       -0.1659
@<TRIPOS>BOND
     1    16    17    3
     2    10    17    1
     3    10    11    1
     4    11    12    1
     5    12    13    1
     6    13     6    1
     7     6     7    1
     8     7     8    1
     9     8     2    1
    10     2     3   am
    11     3     4    2
    12     3     1    1
    13     1    18    1
    14    18    20    1
    15    20    21   ar
    16    21    22   ar
    17    22    23    1
    18    22    24   ar
    19    24    25   ar
    20    25    26   ar
    21    26    27   ar
    22    27    30    1
    23    30    31    1
    24    30    32    1
    25    30    33    1
    26    27    28   ar
    27    28    29   ar
    28     8     9    1
    29    13    14    1
    30    14    15    1
    31    15    10    1
    32     9     6    1
    33    29    20   ar
    34    29    24   ar
    35     2     5    1
    36    18    19    1
@<TRIPOS>MOLECULE
*****
 33 36 0 0 0
SMALL
GASTEIGER

@<TRIPOS>ATOM
      1 C         144.8363  139.4926  164.7115 C.3     1  UNL1        0.1747
      2 N         143.7137  141.5972  163.6818 N.am    1  UNL1       -0.3018
      3 C         144.3252  140.2378  163.5142 C.2     1  UNL1        0.2425
      4 O         144.4256  139.6237  162.1494 O.2     1  UNL1       -0.2733
      5 H         143.6478  142.0003  164.5776 H       1  UNL1        0.1495
      6 N         142.4799  143.3964  160.7914 N.3     1  UNL1       -0.2711
      7 C         143.5253  143.6556  161.8353 C.3     1  UNL1        0.0933
      8 C         143.2026  142.3424  162.4846 C.3     1  UNL1        0.1035
      9 C         142.1572  142.0832  161.4406 C.3     1  UNL1        0.0933
     10 C         140.9466  145.6320  157.1995 C.3     1  UNL1        0.0652
     11 C         140.2484  145.7656  158.5204 C.3     1  UNL1        0.0144
     12 C         140.7595  145.0204  159.7176 C.3     1  UNL1        0.0170
     13 C         141.9688  144.1416  159.5941 C.3     1  UNL1        0.0577
     14 C         142.6670  144.0079  158.2732 C.3     1  UNL1        0.0170
     15 C         142.1559  144.7531  157.0760 C.3     1  UNL1        0.0144
     16 C         139.9247  147.1223  154.8049 C.1     1  UNL1       -0.0142
     17 C         140.4356  146.3771  156.0022 C.1     1  UNL1       -0.0789
     18 N         143.9581  138.4927  165.4037 N.pl3   1  UNL1       -0.3093
     19 H         144.1198  137.5291  165.2836 H       1  UNL1        0.1487
     20 C         142.8335  138.9611  166.2789 C.ar    1  UNL1        0.1500
     21 N         142.9500  139.3839  167.7134 N.ar    1  UNL1       -0.1544
     22 N         141.5835  139.7731  168.1943 N.ar    1  UNL1       -0.2476
     23 C         141.2386  140.2591  169.5708 C.3     1  UNL1        0.1537
     24 C         140.6225  139.5908  167.0571 C.ar    1  UNL1        0.0807
     25 C         139.1438  139.8170  166.9466 C.ar    1  UNL1        0.0188
     26 C         138.4377  139.5413  165.6522 C.ar    1  UNL1        0.0054
     27 C         139.2102  139.0395  164.4685 C.ar    1  UNL1        0.0716
     28 C         140.6889  138.8133  164.5790 C.ar    1  UNL1        0.0082
     29 C         141.3951  139.0890  165.8733 C.ar    1  UNL1        0.0503
     30 C         138.5040  138.7638  163.1741 C.3     1  UNL1        0.4186
     31 F         137.7978  138.4881  161.8798 F       1  UNL1       -0.1659
     32 F         138.4734  140.2339  162.8776 F       1  UNL1       -0.1659
     33 F         138.5346  137.2938  163.4705 F       1  UNL1       -0.1659
@<TRIPOS>BOND
     1    16    17    3
     2    10    17    1
     3    10    11    1
     4    11    12    1
     5    12    13    1
     6    13     6    1
     7     6     7    1
     8     7     8    1
     9     8     2    1
    10     2     3   am
    11     3     4    2
    12     3     1    1
    13     1    18    1
    14    18    20    1
    15    20    21   ar
    16    21    22   ar
    17    22    23    1
    18    22    24   ar
    19    24    25   ar
    20    25    26   ar
    21    26    27   ar
    22    27    30    1
    23    30    31    1
    24    30    32    1
    25    30    33    1
    26    27    28   ar
    27    28    29   ar
    28     8     9    1
    29    13    14    1
    30    14    15    1
    31    15    10    1
    32     9     6    1
    33    29    20   ar
    34    29    24   ar
    35     2     5    1
    36    18    19    1
