@<TRIPOS>MOLECULE
*****
 32 35 0 0 0
SMALL
GASTEIGER

@<TRIPOS>ATOM
      1 O         141.6701  137.7494  161.8620 O.3     1  UNL1       -0.3470
      2 C         140.3198  137.8660  162.5046 C.3     1  UNL1        0.1467
      3 C         137.8009  140.7171  158.2188 C.3     1  UNL1        0.0896
      4 N         138.3191  140.1169  159.4921 N.3     1  UNL1       -0.2715
      5 C         137.8140  140.6121  160.8147 C.3     1  UNL1        0.0725
      6 C         138.3322  140.0118  162.0880 C.3     1  UNL1        0.0238
      7 C         139.3555  138.9163  162.0385 C.3     1  UNL1        0.0489
      8 C         139.8606  138.4210  160.7158 C.3     1  UNL1        0.0238
      9 C         139.3424  139.0213  159.4426 C.3     1  UNL1        0.0725
     10 C         139.1853  139.0468  163.5231 C.ar    1  UNL1       -0.0202
     11 C         138.9143  137.8297  164.3569 C.ar    1  UNL1       -0.0019
     12 C         138.7441  137.9602  165.8414 C.ar    1  UNL1        0.0293
     13 C         138.8448  139.3079  166.4922 C.ar    1  UNL1        0.1401
     14 F         138.6745  139.4384  167.9768 F       1  UNL1       -0.2042
     15 C         139.1157  140.5251  165.6585 C.ar    1  UNL1        0.0293
     16 C         139.2860  140.3945  164.1739 C.ar    1  UNL1       -0.0019
     17 C         142.9067  138.0550  162.6543 C.3     1  UNL1        0.1875
     18 C         142.8544  139.0567  163.7695 C.ar    1  UNL1        0.0901
     19 C         142.8061  138.5908  165.1945 C.ar    1  UNL1        0.0212
     20 C         142.7538  139.5926  166.3097 C.ar    1  UNL1        0.0754
     21 C         142.7497  141.0602  166.0000 C.ar    1  UNL1        0.0382
     22 C         142.7980  141.5261  164.5750 C.ar    1  UNL1        0.1318
     23 N         142.8503  140.5244  163.4597 N.ar    1  UNL1       -0.2325
     24 N         142.7940  142.9938  164.2652 N.pl3   1  UNL1       -0.2851
     25 C         141.5799  143.8392  164.0172 C.3     1  UNL1        0.1187
     26 C         142.0387  145.2416  163.7478 C.2     1  UNL1       -0.0076
     27 C         143.5364  145.2630  163.8294 C.2     1  UNL1       -0.0076
     28 C         144.0031  143.8738  164.1492 C.3     1  UNL1        0.1187
     29 C         142.7055  139.1267  167.7348 C.3     1  UNL1        0.4187
     30 F         142.6573  138.6608  169.1597 F       1  UNL1       -0.1659
     31 F         143.7104  138.0585  167.4195 F       1  UNL1       -0.1659
     32 F         141.7007  140.1949  168.0499 F       1  UNL1       -0.1659
@<TRIPOS>BOND
     1     3     4    1
     2     4     5    1
     3     5     6    1
     4     6     7    1
     5     7     2    1
     6     2     1    1
     7     1    17    1
     8    17    18    1
     9    18    19   ar
    10    19    20   ar
    11    20    29    1
    12    29    30    1
    13    29    31    1
    14    29    32    1
    15    20    21   ar
    16    21    22   ar
    17    22    24    1
    18    24    25    1
    19    25    26    1
    20    26    27    2
    21    27    28    1
    22    22    23   ar
    23     7    10    1
    24    10    11   ar
    25    11    12   ar
    26    12    13   ar
    27    13    14    1
    28    13    15   ar
    29    15    16   ar
    30     7     8    1
    31     8     9    1
    32     9     4    1
    33    23    18   ar
    34    16    10   ar
    35    28    24    1
@<TRIPOS>MOLECULE
*****
 32 35 0 0 0
SMALL
GASTEIGER

@<TRIPOS>ATOM
      1 O         140.0505  141.0244  162.0691 O.3     1  UNL1       -0.3470
      2 C         141.5252  140.7644  162.1558 C.3     1  UNL1        0.1467
      3 C         142.7204  137.4667  157.6238 C.3     1  UNL1        0.0896
      4 N         142.5130  138.1440  158.9460 N.3     1  UNL1       -0.2715
      5 C         142.9670  137.4763  160.2101 C.3     1  UNL1        0.0725
      6 C         142.7595  138.1536  161.5323 C.3     1  UNL1        0.0238
      7 C         142.0981  139.4986  161.5904 C.3     1  UNL1        0.0489
      8 C         141.6441  140.1663  160.3263 C.3     1  UNL1        0.0238
      9 C         141.8515  139.4890  159.0041 C.3     1  UNL1        0.0725
     10 C         142.3532  139.2705  163.0509 C.ar    1  UNL1       -0.0202
     11 C         143.1909  140.2431  163.8269 C.ar    1  UNL1       -0.0019
     12 C         143.4460  140.0150  165.2873 C.ar    1  UNL1        0.0293
     13 C         142.8633  138.8142  165.9718 C.ar    1  UNL1        0.1401
     14 F         143.1183  138.5861  167.4322 F       1  UNL1       -0.2042
     15 C         142.0255  137.8416  165.1959 C.ar    1  UNL1        0.0293
     16 C         141.7704  138.0697  163.7354 C.ar    1  UNL1       -0.0019
     17 C         139.3395  141.6975  163.2056 C.3     1  UNL1        0.1875
     18 C         139.4050  141.1101  164.5843 C.ar    1  UNL1        0.0901
     19 C         138.6775  139.8348  164.8915 C.ar    1  UNL1        0.0212
     20 C         138.7430  139.2475  166.2702 C.ar    1  UNL1        0.0754
     21 C         139.5360  139.9354  167.3416 C.ar    1  UNL1        0.0382
     22 C         140.2635  141.2107  167.0343 C.ar    1  UNL1        0.1318
     23 N         140.1980  141.7980  165.6557 N.ar    1  UNL1       -0.2325
     24 N         141.0565  141.8985  168.1057 N.pl3   1  UNL1       -0.2851
     25 C         140.5200  142.8748  169.1104 C.3     1  UNL1        0.1187
     26 C         141.6570  143.3106  169.9862 C.2     1  UNL1       -0.0076
     27 C         142.8963  142.6037  169.5229 C.2     1  UNL1       -0.0076
     28 C         142.5251  141.7310  168.3608 C.3     1  UNL1        0.1187
     29 C         138.0155  137.9721  166.5775 C.3     1  UNL1        0.4187
     30 F         137.2880  136.6969  166.8849 F       1  UNL1       -0.1659
     31 F         137.3047  138.6508  167.7108 F       1  UNL1       -0.1659
     32 F         138.7264  137.2936  165.4443 F       1  UNL1       -0.1659
@<TRIPOS>BOND
     1     3     4    1
     2     4     5    1
     3     5     6    1
     4     6     7    1
     5     7     2    1
     6     2     1    1
     7     1    17    1
     8    17    18    1
     9    18    19   ar
    10    19    20   ar
    11    20    29    1
    12    29    30    1
    13    29    31    1
    14    29    32    1
    15    20    21   ar
    16    21    22   ar
    17    22    24    1
    18    24    25    1
    19    25    26    1
    20    26    27    2
    21    27    28    1
    22    22    23   ar
    23     7    10    1
    24    10    11   ar
    25    11    12   ar
    26    12    13   ar
    27    13    14    1
    28    13    15   ar
    29    15    16   ar
    30     7     8    1
    31     8     9    1
    32     9     4    1
    33    23    18   ar
    34    16    10   ar
    35    28    24    1
@<TRIPOS>MOLECULE
*****
 32 35 0 0 0
SMALL
GASTEIGER

@<TRIPOS>ATOM
      1 O         143.0946  138.4181  163.8933 O.3     1  UNL1       -0.3470
      2 C         143.3611  139.1958  165.1480 C.3     1  UNL1        0.1467
      3 C         144.4111  144.2035  162.5669 C.3     1  UNL1        0.0896
      4 N         144.0287  143.0332  163.4238 N.3     1  UNL1       -0.2715
      5 C         143.3121  143.2569  164.7224 C.3     1  UNL1        0.0725
      6 C         142.9298  142.0866  165.5793 C.3     1  UNL1        0.0238
      7 C         143.2640  140.6926  165.1375 C.3     1  UNL1        0.0489
      8 C         143.9806  140.4690  163.8389 C.3     1  UNL1        0.0238
      9 C         144.3630  141.6393  162.9820 C.3     1  UNL1        0.0725
     10 C         142.5812  140.3964  166.4398 C.ar    1  UNL1       -0.0202
     11 C         143.1565  139.3721  167.3724 C.ar    1  UNL1       -0.0019
     12 C         142.4736  139.0758  168.6746 C.ar    1  UNL1        0.0293
     13 C         141.2155  139.8040  169.0443 C.ar    1  UNL1        0.1401
     14 F         140.5326  139.5078  170.3467 F       1  UNL1       -0.2042
     15 C         140.6401  140.8284  168.1118 C.ar    1  UNL1        0.0293
     16 C         141.3230  141.1246  166.8095 C.ar    1  UNL1       -0.0019
     17 C         141.7257  137.8635  163.6313 C.3     1  UNL1        0.1875
     18 C         140.5178  138.5482  164.1989 C.ar    1  UNL1        0.0901
     19 C         139.6856  137.8600  165.2401 C.ar    1  UNL1        0.0212
     20 C         138.4778  138.5447  165.8077 C.ar    1  UNL1        0.0754
     21 C         138.1021  139.9175  165.3343 C.ar    1  UNL1        0.0382
     22 C         138.9343  140.6058  164.2932 C.ar    1  UNL1        0.1318
     23 N         140.1421  139.9211  163.7255 N.ar    1  UNL1       -0.2325
     24 N         138.5586  141.9786  163.8198 N.pl3   1  UNL1       -0.2851
     25 C         138.4812  143.2133  164.6682 C.3     1  UNL1        0.1187
     26 C         138.0691  144.3556  163.7878 C.2     1  UNL1       -0.0076
     27 C         137.8918  143.8270  162.3952 C.2     1  UNL1       -0.0076
     28 C         138.1943  142.3579  162.4151 C.3     1  UNL1        0.1187
     29 C         137.6455  137.8565  166.8488 C.3     1  UNL1        0.4187
     30 F         136.8133  137.1685  167.8899 F       1  UNL1       -0.1659
     31 F         137.5544  139.1382  167.6230 F       1  UNL1       -0.1659
     32 F         137.7367  136.5750  166.0746 F       1  UNL1       -0.1659
@<TRIPOS>BOND
     1     3     4    1
     2     4     5    1
     3     5     6    1
     4     6     7    1
     5     7     2    1
     6     2     1    1
     7     1    17    1
     8    17    18    1
     9    18    19   ar
    10    19    20   ar
    11    20    29    1
    12    29    30    1
    13    29    31    1
    14    29    32    1
    15    20    21   ar
    16    21    22   ar
    17    22    24    1
    18    24    25    1
    19    25    26    1
    20    26    27    2
    21    27    28    1
    22    22    23   ar
    23     7    10    1
    24    10    11   ar
    25    11    12   ar
    26    12    13   ar
    27    13    14    1
    28    13    15   ar
    29    15    16   ar
    30     7     8    1
    31     8     9    1
    32     9     4    1
    33    23    18   ar
    34    16    10   ar
    35    28    24    1
@<TRIPOS>MOLECULE
*****
 32 35 0 0 0
SMALL
GASTEIGER

@<TRIPOS>ATOM
      1 O         138.9946  143.6314  164.9584 O.3     1  UNL1       -0.3470
      2 C         139.9116  143.4061  166.1239 C.3     1  UNL1        0.1467
      3 C         144.6834  143.2577  162.9537 C.3     1  UNL1        0.0896
      4 N         143.5554  143.1332  163.9346 N.3     1  UNL1       -0.2715
      5 C         143.6969  142.2393  165.1308 C.3     1  UNL1        0.0725
      6 C         142.5689  142.1148  166.1117 C.3     1  UNL1        0.0238
      7 C         141.2994  142.8842  165.8964 C.3     1  UNL1        0.0489
      8 C         141.1579  143.7781  164.7002 C.3     1  UNL1        0.0238
      9 C         142.2859  143.9026  163.7193 C.3     1  UNL1        0.0725
     10 C         140.9589  142.1715  167.1716 C.ar    1  UNL1       -0.0202
     11 C         140.4951  142.9516  168.3659 C.ar    1  UNL1       -0.0019
     12 C         140.1546  142.2390  169.6412 C.ar    1  UNL1        0.0293
     13 C         140.2780  140.7463  169.7221 C.ar    1  UNL1        0.1401
     14 F         139.9376  140.0337  170.9974 F       1  UNL1       -0.2042
     15 C         140.7419  139.9662  168.5278 C.ar    1  UNL1        0.0293
     16 C         141.0823  140.6788  167.2526 C.ar    1  UNL1       -0.0019
     17 C         138.1563  142.5032  164.4346 C.3     1  UNL1        0.1875
     18 C         138.6616  141.0931  164.5155 C.ar    1  UNL1        0.0901
     19 C         138.0220  140.1203  165.4614 C.ar    1  UNL1        0.0212
     20 C         138.5274  138.7104  165.5421 C.ar    1  UNL1        0.0754
     21 C         139.6721  138.2731  164.6771 C.ar    1  UNL1        0.0382
     22 C         140.3116  139.2459  163.7311 C.ar    1  UNL1        0.1318
     23 N         139.8063  140.6559  163.6503 N.ar    1  UNL1       -0.2325
     24 N         141.4563  138.8086  162.8661 N.pl3   1  UNL1       -0.2851
     25 C         141.3684  137.8829  161.6890 C.3     1  UNL1        0.1187
     26 C         142.7476  137.7224  161.1216 C.2     1  UNL1       -0.0076
     27 C         143.6879  138.5489  161.9479 C.2     1  UNL1       -0.0076
     28 C         142.8897  139.2202  163.0260 C.3     1  UNL1        0.1187
     29 C         137.8879  137.7375  166.4881 C.3     1  UNL1        0.4187
     30 F         137.2485  136.7646  167.4339 F       1  UNL1       -0.1659
     31 F         138.3767  136.5969  165.6453 F       1  UNL1       -0.1659
     32 F         137.3992  138.8781  167.3308 F       1  UNL1       -0.1659
@<TRIPOS>BOND
     1     3     4    1
     2     4     5    1
     3     5     6    1
     4     6     7    1
     5     7     2    1
     6     2     1    1
     7     1    17    1
     8    17    18    1
     9    18    19   ar
    10    19    20   ar
    11    20    29    1
    12    29    30    1
    13    29    31    1
    14    29    32    1
    15    20    21   ar
    16    21    22   ar
    17    22    24    1
    18    24    25    1
    19    25    26    1
    20    26    27    2
    21    27    28    1
    22    22    23   ar
    23     7    10    1
    24    10    11   ar
    25    11    12   ar
    26    12    13   ar
    27    13    14    1
    28    13    15   ar
    29    15    16   ar
    30     7     8    1
    31     8     9    1
    32     9     4    1
    33    23    18   ar
    34    16    10   ar
    35    28    24    1
@<TRIPOS>MOLECULE
*****
 32 35 0 0 0
SMALL
GASTEIGER

@<TRIPOS>ATOM
      1 O         143.5851  140.5562  165.8340 O.3     1  UNL1       -0.3470
      2 C         142.5475  139.5151  166.1329 C.3     1  UNL1        0.1467
      3 C         140.9300  141.4800  171.2676 C.3     1  UNL1        0.0896
      4 N         141.1068  140.9210  169.8869 N.3     1  UNL1       -0.2715
      5 C         139.9130  140.4524  169.1089 C.3     1  UNL1        0.0725
      6 C         140.0898  139.8934  167.7283 C.3     1  UNL1        0.0238
      7 C         141.4603  139.8030  167.1256 C.3     1  UNL1        0.0489
      8 C         142.6541  140.2715  167.9035 C.3     1  UNL1        0.0238
      9 C         142.4774  140.8305  169.2842 C.3     1  UNL1        0.0725
     10 C         140.6440  139.2344  166.0028 C.ar    1  UNL1       -0.0202
     11 C         141.2362  138.1970  165.0957 C.ar    1  UNL1       -0.0019
     12 C         140.4200  137.6284  163.9730 C.ar    1  UNL1        0.0293
     13 C         139.0115  138.0973  163.7575 C.ar    1  UNL1        0.1401
     14 F         138.1952  137.5288  162.6347 F       1  UNL1       -0.2042
     15 C         138.4193  139.1348  164.6646 C.ar    1  UNL1        0.0293
     16 C         139.2356  139.7034  165.7873 C.ar    1  UNL1       -0.0019
     17 C         143.3939  141.4961  164.6807 C.3     1  UNL1        0.1875
     18 C         142.0099  141.8626  164.2333 C.ar    1  UNL1        0.0901
     19 C         141.2441  142.9280  164.9603 C.ar    1  UNL1        0.0212
     20 C         139.8601  143.2944  164.5129 C.ar    1  UNL1        0.0754
     21 C         139.2418  142.5955  163.3386 C.ar    1  UNL1        0.0382
     22 C         140.0075  141.5300  162.6116 C.ar    1  UNL1        0.1318
     23 N         141.3915  141.1635  163.0590 N.ar    1  UNL1       -0.2325
     24 N         139.3892  140.8310  161.4373 N.pl3   1  UNL1       -0.2851
     25 C         140.1098  139.9639  160.4478 C.3     1  UNL1        0.1187
     26 C         139.1078  139.4734  159.4452 C.2     1  UNL1       -0.0076
     27 C         137.7678  140.0373  159.8150 C.2     1  UNL1       -0.0076
     28 C         137.9418  140.8763  161.0462 C.3     1  UNL1        0.1187
     29 C         139.0943  144.3599  165.2399 C.3     1  UNL1        0.4187
     30 F         138.3285  145.4253  165.9669 F       1  UNL1       -0.1659
     31 F         139.6230  143.8479  166.5470 F       1  UNL1       -0.1659
     32 F         138.5657  144.8718  163.9328 F       1  UNL1       -0.1659
@<TRIPOS>BOND
     1     3     4    1
     2     4     5    1
     3     5     6    1
     4     6     7    1
     5     7     2    1
     6     2     1    1
     7     1    17    1
     8    17    18    1
     9    18    19   ar
    10    19    20   ar
    11    20    29    1
    12    29    30    1
    13    29    31    1
    14    29    32    1
    15    20    21   ar
    16    21    22   ar
    17    22    24    1
    18    24    25    1
    19    25    26    1
    20    26    27    2
    21    27    28    1
    22    22    23   ar
    23     7    10    1
    24    10    11   ar
    25    11    12   ar
    26    12    13   ar
    27    13    14    1
    28    13    15   ar
    29    15    16   ar
    30     7     8    1
    31     8     9    1
    32     9     4    1
    33    23    18   ar
    34    16    10   ar
    35    28    24    1
@<TRIPOS>MOLECULE
*****
 32 35 0 0 0
SMALL
GASTEIGER

@<TRIPOS>ATOM
      1 O         138.4485  138.8070  163.3396 O.3     1  UNL1       -0.3470
      2 C         138.5771  140.2152  162.8390 C.3     1  UNL1        0.1467
      3 C         143.2440  139.4327  159.6064 C.3     1  UNL1        0.0896
      4 N         142.1284  139.8592  160.5139 N.3     1  UNL1       -0.2715
      5 C         142.1978  141.1823  161.2171 C.3     1  UNL1        0.0725
      6 C         141.0823  141.6088  162.1246 C.3     1  UNL1        0.0238
      7 C         139.8972  140.7122  162.3289 C.3     1  UNL1        0.0489
      8 C         139.8278  139.3891  161.6257 C.3     1  UNL1        0.0238
      9 C         140.9434  138.9626  160.7182 C.3     1  UNL1        0.0725
     10 C         139.5082  141.8628  163.2093 C.ar    1  UNL1       -0.0202
     11 C         140.5081  142.4512  164.1600 C.ar    1  UNL1       -0.0019
     12 C         140.1191  143.6017  165.0404 C.ar    1  UNL1        0.0293
     13 C         138.7302  144.1637  164.9700 C.ar    1  UNL1        0.1401
     14 F         138.3412  145.3142  165.8504 F       1  UNL1       -0.2042
     15 C         137.7302  143.5753  164.0193 C.ar    1  UNL1        0.0293
     16 C         138.1193  142.4248  163.1389 C.ar    1  UNL1       -0.0019
     17 C         138.6354  138.5095  164.7980 C.3     1  UNL1        0.1875
     18 C         139.7818  139.1213  165.5473 C.ar    1  UNL1        0.0901
     19 C         141.1927  138.7958  165.1557 C.ar    1  UNL1        0.0212
     20 C         142.3391  139.4076  165.9050 C.ar    1  UNL1        0.0754
     21 C         142.0746  140.3448  167.0460 C.ar    1  UNL1        0.0382
     22 C         140.6636  140.6702  167.4376 C.ar    1  UNL1        0.1318
     23 N         139.5172  140.0585  166.6882 N.ar    1  UNL1       -0.2325
     24 N         140.3991  141.6074  168.5785 N.pl3   1  UNL1       -0.2851
     25 C         139.6665  141.2715  169.8436 C.3     1  UNL1        0.1187
     26 C         139.6353  142.5014  170.7017 C.2     1  UNL1       -0.0076
     27 C         140.3487  143.5974  169.9669 C.2     1  UNL1       -0.0076
     28 C         140.8208  143.0448  168.6547 C.3     1  UNL1        0.1187
     29 C         143.7501  139.0822  165.5135 C.3     1  UNL1        0.4187
     30 F         145.1610  138.7569  165.1219 F       1  UNL1       -0.1659
     31 F         143.6294  139.9892  164.3249 F       1  UNL1       -0.1659
     32 F         143.8708  138.1752  166.7021 F       1  UNL1       -0.1659
@<TRIPOS>BOND
     1     3     4    1
     2     4     5    1
     3     5     6    1
     4     6     7    1
     5     7     2    1
     6     2     1    1
     7     1    17    1
     8    17    18    1
     9    18    19   ar
    10    19    20   ar
    11    20    29    1
    12    29    30    1
    13    29    31    1
    14    29    32    1
    15    20    21   ar
    16    21    22   ar
    17    22    24    1
    18    24    25    1
    19    25    26    1
    20    26    27    2
    21    27    28    1
    22    22    23   ar
    23     7    10    1
    24    10    11   ar
    25    11    12   ar
    26    12    13   ar
    27    13    14    1
    28    13    15   ar
    29    15    16   ar
    30     7     8    1
    31     8     9    1
    32     9     4    1
    33    23    18   ar
    34    16    10   ar
    35    28    24    1
@<TRIPOS>MOLECULE
*****
 32 35 0 0 0
SMALL
GASTEIGER

@<TRIPOS>ATOM
      1 O         143.5939  138.5374  162.8711 O.3     1  UNL1       -0.3470
      2 C         142.2207  137.9337  162.8647 C.3     1  UNL1        0.1467
      3 C         141.2843  138.3256  157.2245 C.3     1  UNL1        0.0896
      4 N         141.2851  138.2859  158.7240 N.3     1  UNL1       -0.2715
      5 C         140.0283  138.5927  159.4831 C.3     1  UNL1        0.0725
      6 C         140.0292  138.5530  160.9826 C.3     1  UNL1        0.0238
      7 C         141.2869  138.2066  161.7230 C.3     1  UNL1        0.0489
      8 C         142.5437  137.8998  160.9638 C.3     1  UNL1        0.0238
      9 C         142.5428  137.9395  159.4644 C.3     1  UNL1        0.0725
     10 C         140.3543  138.4186  162.8786 C.ar    1  UNL1       -0.0202
     11 C         139.3825  139.5609  162.8583 C.ar    1  UNL1       -0.0019
     12 C         138.4500  139.7730  164.0139 C.ar    1  UNL1        0.0293
     13 C         138.4893  138.8426  165.1898 C.ar    1  UNL1        0.1401
     14 F         137.5568  139.0546  166.3454 F       1  UNL1       -0.2042
     15 C         139.4611  137.7001  165.2101 C.ar    1  UNL1        0.0293
     16 C         140.3937  137.4881  164.0545 C.ar    1  UNL1       -0.0019
     17 C         144.0054  139.4531  163.9856 C.3     1  UNL1        0.1875
     18 C         142.9632  140.0917  164.8551 C.ar    1  UNL1        0.0901
     19 C         142.7296  139.5791  166.2454 C.ar    1  UNL1        0.0212
     20 C         141.6874  140.2177  167.1148 C.ar    1  UNL1        0.0754
     21 C         140.8789  141.3688  166.5941 C.ar    1  UNL1        0.0382
     22 C         141.1125  141.8814  165.2039 C.ar    1  UNL1        0.1318
     23 N         142.1547  141.2428  164.3343 N.ar    1  UNL1       -0.2325
     24 N         140.3039  143.0325  164.6832 N.pl3   1  UNL1       -0.2851
     25 C         140.7826  144.0858  163.7284 C.3     1  UNL1        0.1187
     26 C         139.6493  145.0367  163.4810 C.2     1  UNL1       -0.0076
     27 C         138.4701  144.5712  164.2827 C.2     1  UNL1       -0.0076
     28 C         138.8747  143.3325  165.0257 C.3     1  UNL1        0.1187
     29 C         141.4538  139.7052  168.5051 C.3     1  UNL1        0.4187
     30 F         141.2200  139.1928  169.8953 F       1  UNL1       -0.1659
     31 F         139.9725  139.8211  168.2987 F       1  UNL1       -0.1659
     32 F         142.9350  139.5894  168.7113 F       1  UNL1       -0.1659
@<TRIPOS>BOND
     1     3     4    1
     2     4     5    1
     3     5     6    1
     4     6     7    1
     5     7     2    1
     6     2     1    1
     7     1    17    1
     8    17    18    1
     9    18    19   ar
    10    19    20   ar
    11    20    29    1
    12    29    30    1
    13    29    31    1
    14    29    32    1
    15    20    21   ar
    16    21    22   ar
    17    22    24    1
    18    24    25    1
    19    25    26    1
    20    26    27    2
    21    27    28    1
    22    22    23   ar
    23     7    10    1
    24    10    11   ar
    25    11    12   ar
    26    12    13   ar
    27    13    14    1
    28    13    15   ar
    29    15    16   ar
    30     7     8    1
    31     8     9    1
    32     9     4    1
    33    23    18   ar
    34    16    10   ar
    35    28    24    1
@<TRIPOS>MOLECULE
*****
 32 35 0 0 0
SMALL
GASTEIGER

@<TRIPOS>ATOM
      1 O         138.0419  138.8178  162.3913 O.3     1  UNL1       -0.3470
      2 C         138.7285  138.2276  163.5872 C.3     1  UNL1        0.1467
      3 C         144.0206  137.8774  161.4163 C.3     1  UNL1        0.0896
      4 N         142.7505  138.0473  162.1962 N.3     1  UNL1       -0.2715
      5 C         142.8013  138.5222  163.6181 C.3     1  UNL1        0.0725
      6 C         141.5313  138.6920  164.3979 C.3     1  UNL1        0.0238
      7 C         140.2104  138.3870  163.7558 C.3     1  UNL1        0.0489
      8 C         140.1597  137.9120  162.3339 C.3     1  UNL1        0.0238
      9 C         141.4297  137.7422  161.5541 C.3     1  UNL1        0.0725
     10 C         139.7466  138.8066  165.1192 C.ar    1  UNL1       -0.0202
     11 C         140.5467  139.7973  165.9118 C.ar    1  UNL1       -0.0019
     12 C         140.0829  140.2169  167.2751 C.ar    1  UNL1        0.0293
     13 C         138.8188  139.6457  167.8459 C.ar    1  UNL1        0.1401
     14 F         138.3549  140.0653  169.2093 F       1  UNL1       -0.2042
     15 C         138.0186  138.6550  167.0534 C.ar    1  UNL1        0.0293
     16 C         138.4825  138.2354  165.6900 C.ar    1  UNL1       -0.0019
     17 C         137.6276  140.2595  162.3999 C.3     1  UNL1        0.1875
     18 C         138.5906  141.3138  162.8592 C.ar    1  UNL1        0.0901
     19 C         138.1660  142.3214  163.8862 C.ar    1  UNL1        0.0212
     20 C         139.1291  143.3757  164.3454 C.ar    1  UNL1        0.0754
     21 C         140.5167  143.4225  163.7777 C.ar    1  UNL1        0.0382
     22 C         140.9413  142.4150  162.7507 C.ar    1  UNL1        0.1318
     23 N         139.9783  141.3606  162.2914 N.ar    1  UNL1       -0.2325
     24 N         142.3289  142.4619  162.1830 N.pl3   1  UNL1       -0.2851
     25 C         142.8716  141.5695  161.1063 C.3     1  UNL1        0.1187
     26 C         144.2955  141.9654  160.8501 C.2     1  UNL1       -0.0076
     27 C         144.6329  143.1023  161.7685 C.2     1  UNL1       -0.0076
     28 C         143.4175  143.4092  162.5923 C.3     1  UNL1        0.1187
     29 C         138.7045  144.3833  165.3724 C.3     1  UNL1        0.4187
     30 F         138.2800  145.3908  166.3993 F       1  UNL1       -0.1659
     31 F         137.5162  144.7412  164.5298 F       1  UNL1       -0.1659
     32 F         139.8928  144.0252  166.2148 F       1  UNL1       -0.1659
@<TRIPOS>BOND
     1     3     4    1
     2     4     5    1
     3     5     6    1
     4     6     7    1
     5     7     2    1
     6     2     1    1
     7     1    17    1
     8    17    18    1
     9    18    19   ar
    10    19    20   ar
    11    20    29    1
    12    29    30    1
    13    29    31    1
    14    29    32    1
    15    20    21   ar
    16    21    22   ar
    17    22    24    1
    18    24    25    1
    19    25    26    1
    20    26    27    2
    21    27    28    1
    22    22    23   ar
    23     7    10    1
    24    10    11   ar
    25    11    12   ar
    26    12    13   ar
    27    13    14    1
    28    13    15   ar
    29    15    16   ar
    30     7     8    1
    31     8     9    1
    32     9     4    1
    33    23    18   ar
    34    16    10   ar
    35    28    24    1
@<TRIPOS>MOLECULE
*****
 32 35 0 0 0
SMALL
GASTEIGER

@<TRIPOS>ATOM
      1 O         144.4630  143.8782  164.1792 O.3     1  UNL1       -0.3470
      2 C         144.0245  142.9264  165.2524 C.3     1  UNL1        0.1467
      3 C         143.9837  138.3067  161.8615 C.3     1  UNL1        0.0896
      4 N         143.8011  139.4036  162.8682 N.3     1  UNL1       -0.2715
      5 C         142.7284  139.2938  163.9108 C.3     1  UNL1        0.0725
      6 C         142.5458  140.3907  164.9175 C.3     1  UNL1        0.0238
      7 C         143.4359  141.5975  164.8815 C.3     1  UNL1        0.0489
      8 C         144.5086  141.7073  163.8389 C.3     1  UNL1        0.0238
      9 C         144.6912  140.6104  162.8322 C.3     1  UNL1        0.0725
     10 C         142.5676  141.9491  166.0530 C.ar    1  UNL1       -0.0202
     11 C         141.0800  142.0397  165.8835 C.ar    1  UNL1       -0.0019
     12 C         140.2116  142.3914  167.0549 C.ar    1  UNL1        0.0293
     13 C         140.8309  142.6524  168.3959 C.ar    1  UNL1        0.1401
     14 F         139.9626  143.0041  169.5674 F       1  UNL1       -0.2042
     15 C         142.3186  142.5619  168.5655 C.ar    1  UNL1        0.0293
     16 C         143.1869  142.2102  167.3940 C.ar    1  UNL1       -0.0019
     17 C         143.6340  145.0884  163.8655 C.3     1  UNL1        0.1875
     18 C         142.2867  144.9292  163.2257 C.ar    1  UNL1        0.0901
     19 C         141.0572  144.8354  164.0799 C.ar    1  UNL1        0.0212
     20 C         139.7099  144.6762  163.4400 C.ar    1  UNL1        0.0754
     21 C         139.5921  144.6108  161.9461 C.ar    1  UNL1        0.0382
     22 C         140.8216  144.7045  161.0919 C.ar    1  UNL1        0.1318
     23 N         142.1689  144.8637  161.7317 N.ar    1  UNL1       -0.2325
     24 N         140.7037  144.6391  159.5981 N.pl3   1  UNL1       -0.2851
     25 C         139.8216  143.7053  158.8233 C.3     1  UNL1        0.1187
     26 C         140.0199  143.9849  157.3630 C.2     1  UNL1       -0.0076
     27 C         141.0246  145.0915  157.2352 C.2     1  UNL1       -0.0076
     28 C         141.4472  145.4957  158.6166 C.3     1  UNL1        0.1187
     29 C         138.4803  144.5825  164.2941 C.3     1  UNL1        0.4187
     30 F         137.2508  144.4887  165.1482 F       1  UNL1       -0.1659
     31 F         139.2202  145.2252  165.4297 F       1  UNL1       -0.1659
     32 F         137.7405  143.9398  163.1585 F       1  UNL1       -0.1659
@<TRIPOS>BOND
     1     3     4    1
     2     4     5    1
     3     5     6    1
     4     6     7    1
     5     7     2    1
     6     2     1    1
     7     1    17    1
     8    17    18    1
     9    18    19   ar
    10    19    20   ar
    11    20    29    1
    12    29    30    1
    13    29    31    1
    14    29    32    1
    15    20    21   ar
    16    21    22   ar
    17    22    24    1
    18    24    25    1
    19    25    26    1
    20    26    27    2
    21    27    28    1
    22    22    23   ar
    23     7    10    1
    24    10    11   ar
    25    11    12   ar
    26    12    13   ar
    27    13    14    1
    28    13    15   ar
    29    15    16   ar
    30     7     8    1
    31     8     9    1
    32     9     4    1
    33    23    18   ar
    34    16    10   ar
    35    28    24    1
