@<TRIPOS>MOLECULE
*****
 25 28 0 0 0
SMALL
GASTEIGER

@<TRIPOS>ATOM
      1 C         142.0339  138.4952  165.0909 C.cat   1  UNL1        0.4252
      2 N         140.6706  137.8700  165.0709 N.2     1  UNL1       -0.0676
      3 C         140.0793  138.0905  163.7101 C.2     1  UNL1        0.1888
      4 C         138.7612  137.6962  163.1126 C.2     1  UNL1        0.0408
      5 C         138.4410  138.0634  161.6940 C.2     1  UNL1        0.0136
      6 C         139.4389  138.8249  160.8728 C.2     1  UNL1        0.0327
      7 C         140.7571  139.2191  161.4703 C.3     1  UNL1        0.1081
      8 C         141.0773  138.8519  162.8890 C.2     1  UNL1        0.1758
      9 N         142.2852  139.1021  163.7423 N.2     1  UNL1       -0.0714
     10 N         139.1187  139.1921  159.4541 N.pl3   1  UNL1       -0.3076
     11 C         138.1435  140.2949  159.1667 C.3     1  UNL1        0.1079
     12 C         137.8233  140.6622  157.7480 C.3     1  UNL1        0.0938
     13 N         138.4783  139.9264  156.6167 N.3     1  UNL1       -0.2686
     14 C         138.1581  140.2936  155.1981 C.3     1  UNL1        0.0897
     15 C         139.4535  138.8235  156.9042 C.3     1  UNL1        0.0938
     16 C         139.7737  138.4564  158.3229 C.3     1  UNL1        0.1079
     17 N         142.9798  138.5108  166.2549 N.pl3   1  UNL1       -0.1848
     18 H         143.6425  137.7904  166.3604 H       1  UNL1        0.2530
     19 C         142.7248  142.9637  170.2683 C.3     1  UNL1        0.0327
     20 C         142.7886  141.8504  169.2649 C.ar    1  UNL1       -0.0025
     21 C         142.8169  142.1634  167.7982 C.ar    1  UNL1        0.0016
     22 C         142.8806  141.0503  166.7949 C.ar    1  UNL1        0.0514
     23 C         142.9161  139.6240  167.2582 C.ar    1  UNL1        0.1936
     24 N         142.8877  139.3110  168.7250 N.ar    1  UNL1       -0.2152
     25 C         142.8240  140.4243  169.7283 C.ar    1  UNL1        0.0974
@<TRIPOS>BOND
     1    19    20    1
     2    20    21   ar
     3    21    22   ar
     4    22    23   ar
     5    23    17    1
     6    17     1    1
     7     1     2    2
     8     2     3    1
     9     3     4    2
    10     4     5    1
    11     5     6    2
    12     6    10    1
    13    10    11    1
    14    11    12    1
    15    12    13    1
    16    13    14    1
    17    13    15    1
    18    15    16    1
    19     6     7    1
    20     7     8    1
    21     8     9    2
    22    23    24   ar
    23    24    25   ar
    24    25    20   ar
    25     9     1    1
    26     8     3    1
    27    16    10    1
    28    17    18    1
@<TRIPOS>MOLECULE
*****
 25 28 0 0 0
SMALL
GASTEIGER

@<TRIPOS>ATOM
      1 C         142.2238  137.7008  161.9942 C.cat   1  UNL1        0.4252
      2 N         140.8355  137.2623  162.3550 N.2     1  UNL1       -0.0676
      3 C         140.4324  137.9831  163.6072 C.2     1  UNL1        0.1888
      4 C         139.1752  137.9487  164.4246 C.2     1  UNL1        0.0408
      5 C         139.0572  138.7983  165.6551 C.2     1  UNL1        0.0136
      6 C         140.1964  139.6823  166.0682 C.2     1  UNL1        0.0327
      7 C         141.4536  139.7168  165.2508 C.3     1  UNL1        0.1081
      8 C         141.5716  138.8671  164.0203 C.2     1  UNL1        0.1758
      9 N         142.6787  138.6927  163.0234 N.2     1  UNL1       -0.0714
     10 N         140.0784  140.5320  167.2988 N.pl3   1  UNL1       -0.3076
     11 C         140.6104  141.9344  167.2957 C.3     1  UNL1        0.1079
     12 C         140.4923  142.7841  168.5263 C.3     1  UNL1        0.0938
     13 N         139.8423  142.2312  169.7599 N.3     1  UNL1       -0.2686
     14 C         139.7243  143.0808  170.9904 C.3     1  UNL1        0.0897
     15 C         139.3103  140.8286  169.7629 C.3     1  UNL1        0.0938
     16 C         139.4284  139.9791  168.5324 C.3     1  UNL1        0.1079
     17 N         143.0178  137.2302  160.8118 N.pl3   1  UNL1       -0.1848
     18 H         143.4611  136.3514  160.8348 H       1  UNL1        0.2530
     19 C         143.4919  140.7028  155.9419 C.3     1  UNL1        0.0327
     20 C         143.3734  139.8346  157.1594 C.ar    1  UNL1       -0.0025
     21 C         142.6587  138.5185  157.0754 C.ar    1  UNL1        0.0016
     22 C         142.5401  137.6504  158.2928 C.ar    1  UNL1        0.0514
     23 C         143.1363  138.0983  159.5944 C.ar    1  UNL1        0.1936
     24 N         143.8510  139.4144  159.6784 N.ar    1  UNL1       -0.2152
     25 C         143.9696  140.2826  158.4609 C.ar    1  UNL1        0.0974
@<TRIPOS>BOND
     1    19    20    1
     2    20    21   ar
     3    21    22   ar
     4    22    23   ar
     5    23    17    1
     6    17     1    1
     7     1     2    2
     8     2     3    1
     9     3     4    2
    10     4     5    1
    11     5     6    2
    12     6    10    1
    13    10    11    1
    14    11    12    1
    15    12    13    1
    16    13    14    1
    17    13    15    1
    18    15    16    1
    19     6     7    1
    20     7     8    1
    21     8     9    2
    22    23    24   ar
    23    24    25   ar
    24    25    20   ar
    25     9     1    1
    26     8     3    1
    27    16    10    1
    28    17    18    1
@<TRIPOS>MOLECULE
*****
 25 28 0 0 0
SMALL
GASTEIGER

@<TRIPOS>ATOM
      1 C         143.2932  138.7041  165.8061 C.cat   1  UNL1        0.4252
      2 N         144.2576  139.4696  164.9494 N.2     1  UNL1       -0.0676
      3 C         143.8418  139.3001  163.5181 C.2     1  UNL1        0.1888
      4 C         144.4175  139.8257  162.2367 C.2     1  UNL1        0.0408
      5 C         143.7719  139.4810  160.9274 C.2     1  UNL1        0.0136
      6 C         142.5505  138.6107  160.8996 C.2     1  UNL1        0.0327
      7 C         141.9748  138.0851  162.1810 C.3     1  UNL1        0.1081
      8 C         142.6204  138.4298  163.4903 C.2     1  UNL1        0.1758
      9 N         142.2814  138.0615  164.9043 N.2     1  UNL1       -0.0714
     10 N         141.9048  138.2661  159.5902 N.pl3   1  UNL1       -0.3076
     11 C         142.7072  137.6040  158.5096 C.3     1  UNL1        0.1079
     12 C         142.0616  137.2593  157.2002 C.3     1  UNL1        0.0938
     13 N         140.6135  137.5767  156.9715 N.3     1  UNL1       -0.2686
     14 C         139.9678  137.2321  155.6622 C.3     1  UNL1        0.0897
     15 C         139.8111  138.2388  158.0522 C.3     1  UNL1        0.0938
     16 C         140.4567  138.5835  159.3615 C.3     1  UNL1        0.1079
     17 N         143.3336  138.5997  167.3019 N.pl3   1  UNL1       -0.1848
     18 H         143.8792  137.9021  167.7321 H       1  UNL1        0.2530
     19 C         140.1701  142.4328  170.6634 C.3     1  UNL1        0.0327
     20 C         140.9610  141.4745  169.8230 C.ar    1  UNL1       -0.0025
     21 C         140.5377  141.1878  168.4129 C.ar    1  UNL1        0.0016
     22 C         141.3285  140.2296  167.5725 C.ar    1  UNL1        0.0514
     23 C         142.5428  139.5579  168.1423 C.ar    1  UNL1        0.1936
     24 N         142.9661  139.8446  169.5525 N.ar    1  UNL1       -0.2152
     25 C         142.1752  140.8029  170.3928 C.ar    1  UNL1        0.0974
@<TRIPOS>BOND
     1    19    20    1
     2    20    21   ar
     3    21    22   ar
     4    22    23   ar
     5    23    17    1
     6    17     1    1
     7     1     2    2
     8     2     3    1
     9     3     4    2
    10     4     5    1
    11     5     6    2
    12     6    10    1
    13    10    11    1
    14    11    12    1
    15    12    13    1
    16    13    14    1
    17    13    15    1
    18    15    16    1
    19     6     7    1
    20     7     8    1
    21     8     9    2
    22    23    24   ar
    23    24    25   ar
    24    25    20   ar
    25     9     1    1
    26     8     3    1
    27    16    10    1
    28    17    18    1
@<TRIPOS>MOLECULE
*****
 25 28 0 0 0
SMALL
GASTEIGER

@<TRIPOS>ATOM
      1 C         141.1726  145.1329  161.0095 C.cat   1  UNL1        0.4252
      2 N         140.0245  145.5676  161.8714 N.2     1  UNL1       -0.0676
      3 C         140.0843  144.7874  163.1512 C.2     1  UNL1        0.1888
      4 C         139.2128  144.7934  164.3719 C.2     1  UNL1        0.0408
      5 C         139.5263  143.8826  165.5217 C.2     1  UNL1        0.0136
      6 C         140.7113  142.9657  165.4507 C.2     1  UNL1        0.0327
      7 C         141.5829  142.9597  164.2299 C.3     1  UNL1        0.1081
      8 C         141.2694  143.8706  163.0802 C.2     1  UNL1        0.1758
      9 N         141.9420  144.0841  161.7565 N.2     1  UNL1       -0.0714
     10 N         141.0248  142.0548  166.6006 N.pl3   1  UNL1       -0.3076
     11 C         139.9780  141.1141  167.1191 C.3     1  UNL1        0.1079
     12 C         140.2914  140.2032  168.2690 C.3     1  UNL1        0.0938
     13 N         141.6518  140.2331  168.9002 N.3     1  UNL1       -0.2686
     14 C         141.9654  139.3223  170.0500 C.3     1  UNL1        0.0897
     15 C         142.6987  141.1740  168.3816 C.3     1  UNL1        0.0938
     16 C         142.3852  142.0848  167.2318 C.3     1  UNL1        0.1079
     17 N         141.4948  145.6554  159.6408 N.pl3   1  UNL1       -0.1848
     18 H         142.2628  146.2578  159.5120 H       1  UNL1        0.2530
     19 C         138.1032  144.0737  154.9508 C.3     1  UNL1        0.0327
     20 C         138.9512  144.4691  156.1233 C.ar    1  UNL1       -0.0025
     21 C         139.1986  143.4914  157.2336 C.ar    1  UNL1        0.0016
     22 C         140.0465  143.8868  158.4061 C.ar    1  UNL1        0.0514
     23 C         140.6469  145.2600  158.4683 C.ar    1  UNL1        0.1936
     24 N         140.3995  146.2377  157.3580 N.ar    1  UNL1       -0.2152
     25 C         139.5516  145.8423  156.1855 C.ar    1  UNL1        0.0974
@<TRIPOS>BOND
     1    19    20    1
     2    20    21   ar
     3    21    22   ar
     4    22    23   ar
     5    23    17    1
     6    17     1    1
     7     1     2    2
     8     2     3    1
     9     3     4    2
    10     4     5    1
    11     5     6    2
    12     6    10    1
    13    10    11    1
    14    11    12    1
    15    12    13    1
    16    13    14    1
    17    13    15    1
    18    15    16    1
    19     6     7    1
    20     7     8    1
    21     8     9    2
    22    23    24   ar
    23    24    25   ar
    24    25    20   ar
    25     9     1    1
    26     8     3    1
    27    16    10    1
    28    17    18    1
@<TRIPOS>MOLECULE
*****
 25 28 0 0 0
SMALL
GASTEIGER

@<TRIPOS>ATOM
      1 C         138.8812  139.4026  166.5860 C.cat   1  UNL1        0.4252
      2 N         138.8546  138.1258  165.7992 N.2     1  UNL1       -0.0676
      3 C         138.8072  138.4799  164.3424 C.2     1  UNL1        0.1888
      4 C         138.7661  137.6337  163.1046 C.2     1  UNL1        0.0408
      5 C         138.7224  138.2832  161.7532 C.2     1  UNL1        0.0136
      6 C         138.7197  139.7789  161.6397 C.2     1  UNL1        0.0327
      7 C         138.7607  140.6251  162.8775 C.3     1  UNL1        0.1081
      8 C         138.8045  139.9756  164.2288 C.2     1  UNL1        0.1758
      9 N         138.8502  140.5458  165.6155 N.2     1  UNL1       -0.0714
     10 N         138.6759  140.4283  160.2882 N.pl3   1  UNL1       -0.3076
     11 C         138.8276  139.5949  159.0503 C.3     1  UNL1        0.1079
     12 C         138.7838  140.2444  157.6989 C.3     1  UNL1        0.0938
     13 N         138.5884  141.7273  157.5854 N.3     1  UNL1       -0.2686
     14 C         138.5446  142.3768  156.2340 C.3     1  UNL1        0.0897
     15 C         138.4367  142.5607  158.8234 C.3     1  UNL1        0.0938
     16 C         138.4805  141.9112  160.1747 C.3     1  UNL1        0.1079
     17 N         138.9302  139.5162  168.0809 N.pl3   1  UNL1       -0.1848
     18 H         138.3098  138.9897  168.6352 H       1  UNL1        0.2530
     19 C         142.9066  143.1794  170.6827 C.3     1  UNL1        0.0327
     20 C         141.9125  142.2635  170.0322 C.ar    1  UNL1       -0.0025
     21 C         140.5283  142.1370  170.5963 C.ar    1  UNL1        0.0016
     22 C         139.5342  141.2212  169.9459 C.ar    1  UNL1        0.0514
     23 C         139.9243  140.4319  168.7313 C.ar    1  UNL1        0.1936
     24 N         141.3084  140.5585  168.1673 N.ar    1  UNL1       -0.2152
     25 C         142.3025  141.4743  168.8178 C.ar    1  UNL1        0.0974
@<TRIPOS>BOND
     1    19    20    1
     2    20    21   ar
     3    21    22   ar
     4    22    23   ar
     5    23    17    1
     6    17     1    1
     7     1     2    2
     8     2     3    1
     9     3     4    2
    10     4     5    1
    11     5     6    2
    12     6    10    1
    13    10    11    1
    14    11    12    1
    15    12    13    1
    16    13    14    1
    17    13    15    1
    18    15    16    1
    19     6     7    1
    20     7     8    1
    21     8     9    2
    22    23    24   ar
    23    24    25   ar
    24    25    20   ar
    25     9     1    1
    26     8     3    1
    27    16    10    1
    28    17    18    1
@<TRIPOS>MOLECULE
*****
 25 28 0 0 0
SMALL
GASTEIGER

@<TRIPOS>ATOM
      1 C         138.9650  138.9253  165.0527 C.cat   1  UNL1        0.4252
      2 N         138.0372  139.6733  164.1418 N.2     1  UNL1       -0.0676
      3 C         138.5029  139.4633  162.7315 C.2     1  UNL1        0.1888
      4 C         137.9771  139.9579  161.4167 C.2     1  UNL1        0.0408
      5 C         138.6670  139.5748  160.1411 C.2     1  UNL1        0.0136
      6 C         139.8827  138.6971  160.1803 C.2     1  UNL1        0.0327
      7 C         140.4085  138.2024  161.4951 C.3     1  UNL1        0.1081
      8 C         139.7186  138.5855  162.7707 C.2     1  UNL1        0.1758
      9 N         140.0042  138.2530  164.2052 N.2     1  UNL1       -0.0714
     10 N         140.5726  138.3139  158.9046 N.pl3   1  UNL1       -0.3076
     11 C         139.7739  138.1145  157.6507 C.3     1  UNL1        0.1079
     12 C         140.4638  137.7314  156.3749 C.3     1  UNL1        0.0938
     13 N         141.9523  137.5478  156.3532 N.3     1  UNL1       -0.2686
     14 C         142.6422  137.1647  155.0776 C.3     1  UNL1        0.0897
     15 C         142.7510  137.7472  157.6072 C.3     1  UNL1        0.0938
     16 C         142.0611  138.1303  158.8829 C.3     1  UNL1        0.1079
     17 N         138.8703  138.8609  166.5483 N.pl3   1  UNL1       -0.1848
     18 H         138.4830  138.0671  166.9833 H       1  UNL1        0.2530
     19 C         140.8518  143.4407  169.8798 C.3     1  UNL1        0.0327
     20 C         140.3564  142.2957  169.0469 C.ar    1  UNL1       -0.0025
     21 C         140.5284  142.3225  167.5570 C.ar    1  UNL1        0.0016
     22 C         140.0330  141.1776  166.7242 C.ar    1  UNL1        0.0514
     23 C         139.3657  140.0058  167.3812 C.ar    1  UNL1        0.1936
     24 N         139.1937  139.9790  168.8710 N.ar    1  UNL1       -0.2152
     25 C         139.6891  141.1240  169.7039 C.ar    1  UNL1        0.0974
@<TRIPOS>BOND
     1    19    20    1
     2    20    21   ar
     3    21    22   ar
     4    22    23   ar
     5    23    17    1
     6    17     1    1
     7     1     2    2
     8     2     3    1
     9     3     4    2
    10     4     5    1
    11     5     6    2
    12     6    10    1
    13    10    11    1
    14    11    12    1
    15    12    13    1
    16    13    14    1
    17    13    15    1
    18    15    16    1
    19     6     7    1
    20     7     8    1
    21     8     9    2
    22    23    24   ar
    23    24    25   ar
    24    25    20   ar
    25     9     1    1
    26     8     3    1
    27    16    10    1
    28    17    18    1
@<TRIPOS>MOLECULE
*****
 25 28 0 0 0
SMALL
GASTEIGER

@<TRIPOS>ATOM
      1 C         139.0065  139.1944  160.4594 C.cat   1  UNL1        0.4252
      2 N         138.8485  137.9827  161.3294 N.2     1  UNL1       -0.0676
      3 C         139.0334  138.4088  162.7557 C.2     1  UNL1        0.1888
      4 C         138.9890  137.6442  164.0454 C.2     1  UNL1        0.0408
      5 C         139.2169  138.3547  165.3466 C.2     1  UNL1        0.0136
      6 C         139.4892  139.8297  165.3582 C.2     1  UNL1        0.0327
      7 C         139.5336  140.5943  164.0685 C.3     1  UNL1        0.1081
      8 C         139.3057  139.8838  162.7672 C.2     1  UNL1        0.1758
      9 N         139.2891  140.3693  161.3481 N.2     1  UNL1       -0.0714
     10 N         139.7171  140.5402  166.6595 N.pl3   1  UNL1       -0.3076
     11 C         140.3011  141.9217  166.6675 C.3     1  UNL1        0.1079
     12 C         140.5290  142.6322  167.9688 C.3     1  UNL1        0.0938
     13 N         140.1729  141.9610  169.2621 N.3     1  UNL1       -0.2686
     14 C         140.4007  142.6714  170.5634 C.3     1  UNL1        0.0897
     15 C         139.5888  140.5794  169.2541 C.3     1  UNL1        0.0938
     16 C         139.3609  139.8690  167.9528 C.3     1  UNL1        0.1079
     17 N         138.9006  139.2256  158.9635 N.pl3   1  UNL1       -0.1848
     18 H         138.1905  139.7530  158.5312 H       1  UNL1        0.2530
     19 C         142.8043  136.1362  155.6143 C.3     1  UNL1        0.0327
     20 C         141.8283  136.9085  156.4516 C.ar    1  UNL1       -0.0025
     21 C         142.3028  137.6442  157.6697 C.ar    1  UNL1        0.0016
     22 C         141.3269  138.4166  158.5069 C.ar    1  UNL1        0.0514
     23 C         139.8765  138.4533  158.1262 C.ar    1  UNL1        0.1936
     24 N         139.4020  137.7176  156.9082 N.ar    1  UNL1       -0.2152
     25 C         140.3779  136.9452  156.0709 C.ar    1  UNL1        0.0974
@<TRIPOS>BOND
     1    19    20    1
     2    20    21   ar
     3    21    22   ar
     4    22    23   ar
     5    23    17    1
     6    17     1    1
     7     1     2    2
     8     2     3    1
     9     3     4    2
    10     4     5    1
    11     5     6    2
    12     6    10    1
    13    10    11    1
    14    11    12    1
    15    12    13    1
    16    13    14    1
    17    13    15    1
    18    15    16    1
    19     6     7    1
    20     7     8    1
    21     8     9    2
    22    23    24   ar
    23    24    25   ar
    24    25    20   ar
    25     9     1    1
    26     8     3    1
    27    16    10    1
    28    17    18    1
@<TRIPOS>MOLECULE
*****
 25 28 0 0 0
SMALL
GASTEIGER

@<TRIPOS>ATOM
      1 C         142.5914  137.7121  158.5556 C.cat   1  UNL1        0.4252
      2 N         141.2736  138.3746  158.8286 N.2     1  UNL1       -0.0676
      3 C         141.1973  138.6669  160.2979 C.2     1  UNL1        0.1888
      4 C         140.1349  139.3096  161.1395 C.2     1  UNL1        0.0408
      5 C         140.3433  139.4705  162.6162 C.2     1  UNL1        0.0136
      6 C         141.6140  138.9887  163.2512 C.2     1  UNL1        0.0327
      7 C         142.6763  138.3461  162.4096 C.3     1  UNL1        0.1081
      8 C         142.4680  138.1852  160.9329 C.2     1  UNL1        0.1758
      9 N         143.3295  137.5951  159.8561 N.2     1  UNL1       -0.0714
     10 N         141.8223  139.1497  164.7280 N.pl3   1  UNL1       -0.3076
     11 C         143.0182  138.5306  165.3886 C.3     1  UNL1        0.1079
     12 C         143.2266  138.6915  166.8654 C.3     1  UNL1        0.0938
     13 N         142.2389  139.4715  167.6815 N.3     1  UNL1       -0.2686
     14 C         142.4472  139.6325  169.1582 C.3     1  UNL1        0.0897
     15 C         141.0429  140.0906  167.0208 C.3     1  UNL1        0.0938
     16 C         140.8346  139.9297  165.5441 C.3     1  UNL1        0.1079
     17 N         143.0844  137.2482  157.2170 N.pl3   1  UNL1       -0.1848
     18 H         143.6573  137.8355  156.6729 H       1  UNL1        0.2530
     19 C         141.5651  131.8131  155.1792 C.3     1  UNL1        0.0327
     20 C         141.9450  133.1720  155.6887 C.ar    1  UNL1       -0.0025
     21 C         142.9664  133.3056  156.7790 C.ar    1  UNL1        0.0016
     22 C         143.3462  134.6643  157.2885 C.ar    1  UNL1        0.0514
     23 C         142.7046  135.8895  156.7076 C.ar    1  UNL1        0.1936
     24 N         141.6832  135.7558  155.6172 N.ar    1  UNL1       -0.2152
     25 C         141.3034  134.3970  155.1078 C.ar    1  UNL1        0.0974
@<TRIPOS>BOND
     1    19    20    1
     2    20    21   ar
     3    21    22   ar
     4    22    23   ar
     5    23    17    1
     6    17     1    1
     7     1     2    2
     8     2     3    1
     9     3     4    2
    10     4     5    1
    11     5     6    2
    12     6    10    1
    13    10    11    1
    14    11    12    1
    15    12    13    1
    16    13    14    1
    17    13    15    1
    18    15    16    1
    19     6     7    1
    20     7     8    1
    21     8     9    2
    22    23    24   ar
    23    24    25   ar
    24    25    20   ar
    25     9     1    1
    26     8     3    1
    27    16    10    1
    28    17    18    1
@<TRIPOS>MOLECULE
*****
 25 28 0 0 0
SMALL
GASTEIGER

@<TRIPOS>ATOM
      1 C         139.0482  141.7075  159.6482 C.cat   1  UNL1        0.4252
      2 N         140.5383  141.7183  159.8200 N.2     1  UNL1       -0.0676
      3 C         141.0938  140.5106  159.1251 C.2     1  UNL1        0.1888
      4 C         142.4957  140.0026  158.9622 C.2     1  UNL1        0.0408
      5 C         142.7508  138.7374  158.1980 C.2     1  UNL1        0.0136
      6 C         141.6040  137.9802  157.5967 C.2     1  UNL1        0.0327
      7 C         140.2022  138.4882  157.7596 C.3     1  UNL1        0.1081
      8 C         139.9471  139.7534  158.5238 C.2     1  UNL1        0.1758
      9 N         138.6828  140.4932  158.8471 N.2     1  UNL1       -0.0714
     10 N         141.8592  136.7149  156.8324 N.pl3   1  UNL1       -0.3076
     11 C         140.9424  136.3163  155.7142 C.3     1  UNL1        0.1079
     12 C         141.1976  135.0510  154.9499 C.3     1  UNL1        0.0938
     13 N         142.3696  134.1844  155.3039 N.3     1  UNL1       -0.2686
     14 C         142.6248  132.9192  154.5397 C.3     1  UNL1        0.0897
     15 C         143.2865  134.5831  156.4222 C.3     1  UNL1        0.0938
     16 C         143.0313  135.8483  157.1864 C.3     1  UNL1        0.1079
     17 N         138.0915  142.7314  160.1835 N.pl3   1  UNL1       -0.1848
     18 H         137.3532  143.0573  159.6197 H       1  UNL1        0.2530
     19 C         138.7645  144.8399  165.7604 C.3     1  UNL1        0.0327
     20 C         138.5963  144.3128  164.3661 C.ar    1  UNL1       -0.0025
     21 C         137.8783  143.0160  164.1361 C.ar    1  UNL1        0.0016
     22 C         137.7101  142.4888  162.7420 C.ar    1  UNL1        0.0514
     23 C         138.2598  143.2585  161.5776 C.ar    1  UNL1        0.1936
     24 N         138.9777  144.5553  161.8076 N.ar    1  UNL1       -0.2152
     25 C         139.1460  145.0824  163.2019 C.ar    1  UNL1        0.0974
@<TRIPOS>BOND
     1    19    20    1
     2    20    21   ar
     3    21    22   ar
     4    22    23   ar
     5    23    17    1
     6    17     1    1
     7     1     2    2
     8     2     3    1
     9     3     4    2
    10     4     5    1
    11     5     6    2
    12     6    10    1
    13    10    11    1
    14    11    12    1
    15    12    13    1
    16    13    14    1
    17    13    15    1
    18    15    16    1
    19     6     7    1
    20     7     8    1
    21     8     9    2
    22    23    24   ar
    23    24    25   ar
    24    25    20   ar
    25     9     1    1
    26     8     3    1
    27    16    10    1
    28    17    18    1
