@<TRIPOS>MOLECULE
*****
 26 29 0 0 0
SMALL
GASTEIGER

@<TRIPOS>ATOM
      1 C         141.8021  143.3021  162.6942 C.ar    1  UNL1        0.0824
      2 C         142.9840  143.7859  163.4809 C.ar    1  UNL1        0.0192
      3 C         143.3879  143.0774  164.7397 C.ar    1  UNL1        0.0030
      4 C         142.6099  141.8850  165.2119 C.ar    1  UNL1        0.0174
      5 C         143.0138  141.1764  166.4708 C.ar    1  UNL1       -0.0027
      6 C         142.2358  139.9841  166.9430 C.ar    1  UNL1       -0.0207
      7 C         141.0538  139.5002  166.1562 C.ar    1  UNL1       -0.0027
      8 C         140.6499  140.2088  164.8973 C.ar    1  UNL1        0.0188
      9 C         141.4280  141.4012  164.4252 C.ar    1  UNL1        0.0812
     10 N         141.0241  142.1097  163.1663 N.ar    1  UNL1       -0.2453
     11 C         140.1863  146.1364  157.6586 C.3     1  UNL1        0.0521
     12 C         140.5903  145.4278  158.9175 C.ar    1  UNL1        0.0590
     13 C         141.7263  144.4486  158.8954 C.ar    1  UNL1        0.0148
     14 C         142.1302  143.7400  160.1544 C.ar    1  UNL1        0.0039
     15 C         141.3982  144.0107  161.4352 C.ar    1  UNL1        0.0312
     16 C         140.2621  144.9899  161.4573 C.ar    1  UNL1        0.0604
     17 C         139.5300  145.2606  162.7383 C.3     1  UNL1        0.0521
     18 N         139.8582  145.6985  160.1985 N.ar    1  UNL1       -0.2539
     19 C         142.6397  139.2755  168.2018 C.3     1  UNL1        0.0437
     20 C         142.0792  139.7142  169.5223 C.3     1  UNL1        0.0768
     21 N         141.5637  141.1127  169.6908 N.3     1  UNL1       -0.2737
     22 C         140.1211  141.5222  169.7266 C.3     1  UNL1        0.0721
     23 C         140.0660  143.0098  169.9111 C.3     1  UNL1        0.0187
     24 C         141.4746  143.5196  169.9893 C.3     1  UNL1        0.0174
     25 C         142.4001  142.3471  169.8532 C.3     1  UNL1        0.0576
     26 C         143.8990  142.3998  169.8755 C.3     1  UNL1        0.0173
@<TRIPOS>BOND
     1    11    12    1
     2    12    13   ar
     3    13    14   ar
     4    14    15   ar
     5    15     1    1
     6     1     2   ar
     7     2     3   ar
     8     3     4   ar
     9     4     5   ar
    10     5     6   ar
    11     6    19    1
    12    19    20    1
    13    20    21    1
    14    21    22    1
    15    22    23    1
    16    23    24    1
    17    24    25    1
    18    25    26    1
    19     6     7   ar
    20     7     8   ar
    21     8     9   ar
    22     9    10   ar
    23    15    16   ar
    24    16    17    1
    25    16    18   ar
    26    18    12   ar
    27    10     1   ar
    28     9     4   ar
    29    25    21    1
@<TRIPOS>MOLECULE
*****
 26 29 0 0 0
SMALL
GASTEIGER

@<TRIPOS>ATOM
      1 C         141.4283  138.3586  159.5801 C.ar    1  UNL1        0.0824
      2 C         139.9506  138.5797  159.4480 C.ar    1  UNL1        0.0192
      3 C         139.0625  138.4501  160.6498 C.ar    1  UNL1        0.0030
      4 C         139.6520  138.0993  161.9837 C.ar    1  UNL1        0.0174
      5 C         138.7638  137.9696  163.1856 C.ar    1  UNL1       -0.0027
      6 C         139.3534  137.6188  164.5195 C.ar    1  UNL1       -0.0207
      7 C         140.8312  137.3977  164.6516 C.ar    1  UNL1       -0.0027
      8 C         141.7193  137.5273  163.4498 C.ar    1  UNL1        0.0188
      9 C         141.1297  137.8781  162.1158 C.ar    1  UNL1        0.0812
     10 N         142.0178  138.0078  160.9140 N.ar    1  UNL1       -0.2453
     11 C         144.9810  138.8773  154.7729 C.3     1  UNL1        0.0521
     12 C         144.0928  138.7476  155.9747 C.ar    1  UNL1        0.0590
     13 C         143.2226  137.5366  156.1370 C.ar    1  UNL1        0.0148
     14 C         142.3344  137.4070  157.3388 C.ar    1  UNL1        0.0039
     15 C         142.3165  138.4882  158.3783 C.ar    1  UNL1        0.0312
     16 C         143.1867  139.6992  158.2160 C.ar    1  UNL1        0.0604
     17 C         143.1687  140.7805  159.2555 C.3     1  UNL1        0.0521
     18 N         144.0749  139.8289  157.0142 N.ar    1  UNL1       -0.2539
     19 C         138.4653  137.4892  165.7213 C.3     1  UNL1        0.0437
     20 C         138.0241  138.7157  166.4637 C.3     1  UNL1        0.0768
     21 N         138.9636  139.8739  166.6239 N.3     1  UNL1       -0.2737
     22 C         139.9757  140.0435  167.7179 C.3     1  UNL1        0.0721
     23 C         140.6936  141.3403  167.4884 C.3     1  UNL1        0.0187
     24 C         140.1251  141.9723  166.2524 C.3     1  UNL1        0.0174
     25 C         139.0559  141.0660  165.7182 C.3     1  UNL1        0.0576
     26 C         138.2250  141.3092  164.4933 C.3     1  UNL1        0.0173
@<TRIPOS>BOND
     1    11    12    1
     2    12    13   ar
     3    13    14   ar
     4    14    15   ar
     5    15     1    1
     6     1     2   ar
     7     2     3   ar
     8     3     4   ar
     9     4     5   ar
    10     5     6   ar
    11     6    19    1
    12    19    20    1
    13    20    21    1
    14    21    22    1
    15    22    23    1
    16    23    24    1
    17    24    25    1
    18    25    26    1
    19     6     7   ar
    20     7     8   ar
    21     8     9   ar
    22     9    10   ar
    23    15    16   ar
    24    16    17    1
    25    16    18   ar
    26    18    12   ar
    27    10     1   ar
    28     9     4   ar
    29    25    21    1
@<TRIPOS>MOLECULE
*****
 26 29 0 0 0
SMALL
GASTEIGER

@<TRIPOS>ATOM
      1 C         142.1535  143.2284  162.8060 C.ar    1  UNL1        0.0824
      2 C         143.2555  143.7508  163.6793 C.ar    1  UNL1        0.0192
      3 C         143.5823  143.0583  164.9691 C.ar    1  UNL1        0.0030
      4 C         142.8072  141.8435  165.3855 C.ar    1  UNL1        0.0174
      5 C         143.1341  141.1510  166.6754 C.ar    1  UNL1       -0.0027
      6 C         142.3590  139.9362  167.0918 C.ar    1  UNL1       -0.0207
      7 C         141.2570  139.4138  166.2184 C.ar    1  UNL1       -0.0027
      8 C         140.9302  140.1063  164.9286 C.ar    1  UNL1        0.0188
      9 C         141.7053  141.3211  164.5122 C.ar    1  UNL1        0.0812
     10 N         141.3784  142.0136  163.2224 N.ar    1  UNL1       -0.2453
     11 C         140.8460  145.9982  157.6466 C.3     1  UNL1        0.0521
     12 C         141.1728  145.3057  158.9364 C.ar    1  UNL1        0.0590
     13 C         140.3477  145.5718  160.1605 C.ar    1  UNL1        0.0148
     14 C         140.6746  144.8793  161.4504 C.ar    1  UNL1        0.0039
     15 C         141.8266  143.9209  161.5161 C.ar    1  UNL1        0.0312
     16 C         142.6517  143.6549  160.2920 C.ar    1  UNL1        0.0604
     17 C         143.8037  142.6964  160.3577 C.3     1  UNL1        0.0521
     18 N         142.3248  144.3473  159.0022 N.ar    1  UNL1       -0.2539
     19 C         142.6859  139.2437  168.3816 C.3     1  UNL1        0.0437
     20 C         142.0725  139.7199  169.6650 C.3     1  UNL1        0.0768
     21 N         141.5610  141.1256  169.7756 N.3     1  UNL1       -0.2737
     22 C         140.1207  141.5440  169.7545 C.3     1  UNL1        0.0721
     23 C         140.0695  143.0368  169.8925 C.3     1  UNL1        0.0187
     24 C         141.4783  143.5410  169.9988 C.3     1  UNL1        0.0174
     25 C         142.4000  142.3598  169.9266 C.3     1  UNL1        0.0576
     26 C         143.8978  142.4049  169.9936 C.3     1  UNL1        0.0173
@<TRIPOS>BOND
     1    11    12    1
     2    12    13   ar
     3    13    14   ar
     4    14    15   ar
     5    15     1    1
     6     1     2   ar
     7     2     3   ar
     8     3     4   ar
     9     4     5   ar
    10     5     6   ar
    11     6    19    1
    12    19    20    1
    13    20    21    1
    14    21    22    1
    15    22    23    1
    16    23    24    1
    17    24    25    1
    18    25    26    1
    19     6     7   ar
    20     7     8   ar
    21     8     9   ar
    22     9    10   ar
    23    15    16   ar
    24    16    17    1
    25    16    18   ar
    26    18    12   ar
    27    10     1   ar
    28     9     4   ar
    29    25    21    1
@<TRIPOS>MOLECULE
*****
 26 29 0 0 0
SMALL
GASTEIGER

@<TRIPOS>ATOM
      1 C         139.4017  140.4753  162.9219 C.ar    1  UNL1        0.0824
      2 C         138.4007  140.5868  164.0335 C.ar    1  UNL1        0.0192
      3 C         138.8285  140.3613  165.4533 C.ar    1  UNL1        0.0030
      4 C         140.2572  140.0245  165.7617 C.ar    1  UNL1        0.0174
      5 C         140.6850  139.7990  167.1817 C.ar    1  UNL1       -0.0027
      6 C         142.1138  139.4622  167.4901 C.ar    1  UNL1       -0.0207
      7 C         143.1148  139.3508  166.3785 C.ar    1  UNL1       -0.0027
      8 C         142.6870  139.5762  164.9586 C.ar    1  UNL1        0.0188
      9 C         141.2583  139.9131  164.6502 C.ar    1  UNL1        0.0812
     10 N         140.8305  140.1385  163.2303 N.ar    1  UNL1       -0.2453
     11 C         137.6908  141.3770  157.2421 C.3     1  UNL1        0.0521
     12 C         138.1185  141.1516  158.6620 C.ar    1  UNL1        0.0590
     13 C         138.5165  142.3163  159.5193 C.ar    1  UNL1        0.0148
     14 C         138.9442  142.0909  160.9393 C.ar    1  UNL1        0.0039
     15 C         138.9740  140.7008  161.5020 C.ar    1  UNL1        0.0312
     16 C         138.5760  139.5360  160.6447 C.ar    1  UNL1        0.0604
     17 C         138.6057  138.1458  161.2074 C.3     1  UNL1        0.0521
     18 N         138.1483  139.7614  159.2248 N.ar    1  UNL1       -0.2539
     19 C         142.5415  139.2368  168.9100 C.3     1  UNL1        0.0437
     20 C         141.6946  139.7462  170.0384 C.3     1  UNL1        0.0768
     21 N         141.2988  141.1923  170.0854 N.3     1  UNL1       -0.2737
     22 C         139.9128  141.7202  170.3096 C.3     1  UNL1        0.0721
     23 C         139.9769  143.2185  170.2793 C.3     1  UNL1        0.0187
     24 C         141.4026  143.6166  170.0363 C.3     1  UNL1        0.0174
     25 C         142.2195  142.3643  169.9165 C.3     1  UNL1        0.0576
     26 C         143.6977  142.2961  169.6710 C.3     1  UNL1        0.0173
@<TRIPOS>BOND
     1    11    12    1
     2    12    13   ar
     3    13    14   ar
     4    14    15   ar
     5    15     1    1
     6     1     2   ar
     7     2     3   ar
     8     3     4   ar
     9     4     5   ar
    10     5     6   ar
    11     6    19    1
    12    19    20    1
    13    20    21    1
    14    21    22    1
    15    22    23    1
    16    23    24    1
    17    24    25    1
    18    25    26    1
    19     6     7   ar
    20     7     8   ar
    21     8     9   ar
    22     9    10   ar
    23    15    16   ar
    24    16    17    1
    25    16    18   ar
    26    18    12   ar
    27    10     1   ar
    28     9     4   ar
    29    25    21    1
@<TRIPOS>MOLECULE
*****
 26 29 0 0 0
SMALL
GASTEIGER

@<TRIPOS>ATOM
      1 C         141.1981  138.8476  162.4063 C.ar    1  UNL1        0.0824
      2 C         140.8505  137.5615  163.0956 C.ar    1  UNL1        0.0192
      3 C         140.3872  137.5767  164.5222 C.ar    1  UNL1        0.0030
      4 C         140.2714  138.8779  165.2594 C.ar    1  UNL1        0.0174
      5 C         139.8080  138.8930  166.6860 C.ar    1  UNL1       -0.0027
      6 C         139.6922  140.1941  167.4232 C.ar    1  UNL1       -0.0207
      7 C         140.0398  141.4803  166.7338 C.ar    1  UNL1       -0.0027
      8 C         140.5032  141.4651  165.3073 C.ar    1  UNL1        0.0188
      9 C         140.6190  140.1639  164.5701 C.ar    1  UNL1        0.0812
     10 N         141.0824  140.1488  163.1436 N.ar    1  UNL1       -0.2453
     11 C         143.0518  138.7873  156.7001 C.3     1  UNL1        0.0521
     12 C         142.5884  138.8023  158.1266 C.ar    1  UNL1        0.0590
     13 C         141.1282  138.6678  158.4423 C.ar    1  UNL1        0.0148
     14 C         140.6648  138.6829  159.8689 C.ar    1  UNL1        0.0039
     15 C         141.6616  138.8325  160.9797 C.ar    1  UNL1        0.0312
     16 C         143.1218  138.9670  160.6641 C.ar    1  UNL1        0.0604
     17 C         144.1186  139.1167  161.7750 C.3     1  UNL1        0.0521
     18 N         143.5852  138.9520  159.2376 N.ar    1  UNL1       -0.2539
     19 C         139.2288  140.2093  168.8497 C.3     1  UNL1        0.0437
     20 C         140.2307  140.1484  169.9645 C.3     1  UNL1        0.0768
     21 N         141.4206  141.0617  169.9542 N.3     1  UNL1       -0.2737
     22 C         142.8546  140.6401  169.8285 C.3     1  UNL1        0.0721
     23 C         143.7056  141.8748  169.8644 C.3     1  UNL1        0.0187
     24 C         142.7975  143.0595  170.0123 C.3     1  UNL1        0.0174
     25 C         141.3853  142.5570  170.0678 C.3     1  UNL1        0.0576
     26 C         140.1540  143.4015  170.2116 C.3     1  UNL1        0.0173
@<TRIPOS>BOND
     1    11    12    1
     2    12    13   ar
     3    13    14   ar
     4    14    15   ar
     5    15     1    1
     6     1     2   ar
     7     2     3   ar
     8     3     4   ar
     9     4     5   ar
    10     5     6   ar
    11     6    19    1
    12    19    20    1
    13    20    21    1
    14    21    22    1
    15    22    23    1
    16    23    24    1
    17    24    25    1
    18    25    26    1
    19     6     7   ar
    20     7     8   ar
    21     8     9   ar
    22     9    10   ar
    23    15    16   ar
    24    16    17    1
    25    16    18   ar
    26    18    12   ar
    27    10     1   ar
    28     9     4   ar
    29    25    21    1
@<TRIPOS>MOLECULE
*****
 26 29 0 0 0
SMALL
GASTEIGER

@<TRIPOS>ATOM
      1 C         139.2677  142.8613  161.4537 C.ar    1  UNL1        0.0824
      2 C         137.8814  142.9465  162.0199 C.ar    1  UNL1        0.0192
      3 C         137.5544  142.2551  163.3102 C.ar    1  UNL1        0.0030
      4 C         138.6138  141.4784  164.0343 C.ar    1  UNL1        0.0174
      5 C         138.2868  140.7869  165.3247 C.ar    1  UNL1       -0.0027
      6 C         139.3462  140.0102  166.0488 C.ar    1  UNL1       -0.0207
      7 C         140.7327  139.9250  165.4825 C.ar    1  UNL1       -0.0027
      8 C         141.0596  140.6164  164.1922 C.ar    1  UNL1        0.0188
      9 C         140.0002  141.3931  163.4681 C.ar    1  UNL1        0.0812
     10 N         140.3272  142.0846  162.1778 N.ar    1  UNL1       -0.2453
     11 C         140.5758  145.6272  156.2924 C.3     1  UNL1        0.0521
     12 C         140.2488  144.9357  157.5827 C.ar    1  UNL1        0.0590
     13 C         139.6699  143.5520  157.5663 C.ar    1  UNL1        0.0148
     14 C         139.3428  142.8605  158.8567 C.ar    1  UNL1        0.0039
     15 C         139.5948  143.5527  160.1633 C.ar    1  UNL1        0.0312
     16 C         140.1737  144.9364  160.1797 C.ar    1  UNL1        0.0604
     17 C         140.4256  145.6286  161.4864 C.3     1  UNL1        0.0521
     18 N         140.5007  145.6279  158.8894 N.ar    1  UNL1       -0.2539
     19 C         139.0193  139.3187  167.3391 C.3     1  UNL1        0.0437
     20 C         139.2435  140.0222  168.6448 C.3     1  UNL1        0.0768
     21 N         140.6290  140.4326  169.0474 N.3     1  UNL1       -0.2737
     22 C         141.6035  139.6005  169.8271 C.3     1  UNL1        0.0721
     23 C         142.8600  140.4008  170.0025 C.3     1  UNL1        0.0187
     24 C         142.6620  141.7276  169.3313 C.3     1  UNL1        0.0174
     25 C         141.2831  141.7472  168.7410 C.3     1  UNL1        0.0576
     26 C         140.6667  142.8822  167.9782 C.3     1  UNL1        0.0173
@<TRIPOS>BOND
     1    11    12    1
     2    12    13   ar
     3    13    14   ar
     4    14    15   ar
     5    15     1    1
     6     1     2   ar
     7     2     3   ar
     8     3     4   ar
     9     4     5   ar
    10     5     6   ar
    11     6    19    1
    12    19    20    1
    13    20    21    1
    14    21    22    1
    15    22    23    1
    16    23    24    1
    17    24    25    1
    18    25    26    1
    19     6     7   ar
    20     7     8   ar
    21     8     9   ar
    22     9    10   ar
    23    15    16   ar
    24    16    17    1
    25    16    18   ar
    26    18    12   ar
    27    10     1   ar
    28     9     4   ar
    29    25    21    1
@<TRIPOS>MOLECULE
*****
 26 29 0 0 0
SMALL
GASTEIGER

@<TRIPOS>ATOM
      1 C         139.4619  141.8266  162.1671 C.ar    1  UNL1        0.0824
      2 C         138.6006  142.3699  163.2684 C.ar    1  UNL1        0.0192
      3 C         139.1803  142.5914  164.6339 C.ar    1  UNL1        0.0030
      4 C         140.6213  142.2696  164.8982 C.ar    1  UNL1        0.0174
      5 C         141.2010  142.4911  166.2639 C.ar    1  UNL1       -0.0027
      6 C         142.6420  142.1693  166.5282 C.ar    1  UNL1       -0.0207
      7 C         143.5033  141.6259  165.4269 C.ar    1  UNL1       -0.0027
      8 C         142.9236  141.4044  164.0613 C.ar    1  UNL1        0.0188
      9 C         141.4826  141.7262  163.7970 C.ar    1  UNL1        0.0812
     10 N         140.9029  141.5047  162.4314 N.ar    1  UNL1       -0.2453
     11 C         137.1432  140.9404  156.7046 C.3     1  UNL1        0.0521
     12 C         137.7228  141.1619  158.0702 C.ar    1  UNL1        0.0590
     13 C         138.3459  142.4820  158.4154 C.ar    1  UNL1        0.0148
     14 C         138.9256  142.7036  159.7810 C.ar    1  UNL1        0.0039
     15 C         138.8822  141.6050  160.8014 C.ar    1  UNL1        0.0312
     16 C         138.2592  140.2849  160.4563 C.ar    1  UNL1        0.0604
     17 C         138.2158  139.1863  161.4768 C.3     1  UNL1        0.0521
     18 N         137.6795  140.0634  159.0907 N.ar    1  UNL1       -0.2539
     19 C         143.2217  142.3908  167.8938 C.3     1  UNL1        0.0437
     20 C         142.9021  141.4384  169.0078 C.3     1  UNL1        0.0768
     21 N         141.4783  141.2301  169.4311 N.3     1  UNL1       -0.2737
     22 C         140.7662  139.9123  169.5117 C.3     1  UNL1        0.0721
     23 C         139.3643  140.1707  169.9786 C.3     1  UNL1        0.0187
     24 C         139.2101  141.6482  170.1866 C.3     1  UNL1        0.0174
     25 C         140.5166  142.3029  169.8483 C.3     1  UNL1        0.0576
     26 C         140.8098  143.7724  169.9153 C.3     1  UNL1        0.0173
@<TRIPOS>BOND
     1    11    12    1
     2    12    13   ar
     3    13    14   ar
     4    14    15   ar
     5    15     1    1
     6     1     2   ar
     7     2     3   ar
     8     3     4   ar
     9     4     5   ar
    10     5     6   ar
    11     6    19    1
    12    19    20    1
    13    20    21    1
    14    21    22    1
    15    22    23    1
    16    23    24    1
    17    24    25    1
    18    25    26    1
    19     6     7   ar
    20     7     8   ar
    21     8     9   ar
    22     9    10   ar
    23    15    16   ar
    24    16    17    1
    25    16    18   ar
    26    18    12   ar
    27    10     1   ar
    28     9     4   ar
    29    25    21    1
@<TRIPOS>MOLECULE
*****
 26 29 0 0 0
SMALL
GASTEIGER

@<TRIPOS>ATOM
      1 C         142.4799  138.2958  159.8900 C.ar    1  UNL1        0.0824
      2 C         143.6929  139.1172  160.2121 C.ar    1  UNL1        0.0192
      3 C         144.0835  139.3494  161.6416 C.ar    1  UNL1        0.0030
      4 C         143.2610  138.7602  162.7490 C.ar    1  UNL1        0.0174
      5 C         143.6516  138.9925  164.1786 C.ar    1  UNL1       -0.0027
      6 C         142.8291  138.4033  165.2860 C.ar    1  UNL1       -0.0207
      7 C         141.6160  137.5818  164.9638 C.ar    1  UNL1       -0.0027
      8 C         141.2255  137.3496  163.5344 C.ar    1  UNL1        0.0188
      9 C         142.0479  137.9388  162.4269 C.ar    1  UNL1        0.0812
     10 N         141.6574  137.7066  160.9974 N.ar    1  UNL1       -0.2453
     11 C         140.9173  137.3670  154.1720 C.3     1  UNL1        0.0521
     12 C         141.3080  137.5992  155.6014 C.ar    1  UNL1        0.0590
     13 C         142.3493  136.7321  156.2447 C.ar    1  UNL1        0.0148
     14 C         142.7399  136.9643  157.6743 C.ar    1  UNL1        0.0039
     15 C         142.0892  138.0636  158.4605 C.ar    1  UNL1        0.0312
     16 C         141.0479  138.9307  157.8172 C.ar    1  UNL1        0.0604
     17 C         140.3973  140.0301  158.6035 C.3     1  UNL1        0.0521
     18 N         140.6573  138.6985  156.3877 N.ar    1  UNL1       -0.2539
     19 C         143.2197  138.6354  166.7155 C.3     1  UNL1        0.0437
     20 C         142.5088  139.6773  167.5275 C.3     1  UNL1        0.0768
     21 N         141.7160  140.7504  166.8421 N.3     1  UNL1       -0.2737
     22 C         142.2717  142.0008  166.2274 C.3     1  UNL1        0.0721
     23 C         141.1274  142.7847  165.6564 C.3     1  UNL1        0.0187
     24 C         139.8645  142.0188  165.9182 C.3     1  UNL1        0.0174
     25 C         140.2283  140.7615  166.6509 C.3     1  UNL1        0.0576
     26 C         139.2722  139.7015  167.1116 C.3     1  UNL1        0.0173
@<TRIPOS>BOND
     1    11    12    1
     2    12    13   ar
     3    13    14   ar
     4    14    15   ar
     5    15     1    1
     6     1     2   ar
     7     2     3   ar
     8     3     4   ar
     9     4     5   ar
    10     5     6   ar
    11     6    19    1
    12    19    20    1
    13    20    21    1
    14    21    22    1
    15    22    23    1
    16    23    24    1
    17    24    25    1
    18    25    26    1
    19     6     7   ar
    20     7     8   ar
    21     8     9   ar
    22     9    10   ar
    23    15    16   ar
    24    16    17    1
    25    16    18   ar
    26    18    12   ar
    27    10     1   ar
    28     9     4   ar
    29    25    21    1
@<TRIPOS>MOLECULE
*****
 26 29 0 0 0
SMALL
GASTEIGER

@<TRIPOS>ATOM
      1 C         140.8746  139.0236  161.4714 C.ar    1  UNL1        0.0824
      2 C         141.3052  140.3846  161.9320 C.ar    1  UNL1        0.0192
      3 C         140.9729  140.8465  163.3199 C.ar    1  UNL1        0.0030
      4 C         140.2101  139.9474  164.2471 C.ar    1  UNL1        0.0174
      5 C         139.8779  140.4094  165.6350 C.ar    1  UNL1       -0.0027
      6 C         139.1151  139.5104  166.5623 C.ar    1  UNL1       -0.0207
      7 C         138.6845  138.1493  166.1016 C.ar    1  UNL1       -0.0027
      8 C         139.0167  137.6874  164.7137 C.ar    1  UNL1        0.0188
      9 C         139.7795  138.5864  163.7865 C.ar    1  UNL1        0.0812
     10 N         140.1117  138.1245  162.3986 N.ar    1  UNL1       -0.2453
     11 C         142.2035  137.1757  155.9198 C.3     1  UNL1        0.0521
     12 C         141.8712  137.6376  157.3077 C.ar    1  UNL1        0.0590
     13 C         140.5286  138.2411  157.5960 C.ar    1  UNL1        0.0148
     14 C         140.1964  138.7031  158.9839 C.ar    1  UNL1        0.0039
     15 C         141.2068  138.5616  160.0834 C.ar    1  UNL1        0.0312
     16 C         142.5494  137.9582  159.7951 C.ar    1  UNL1        0.0604
     17 C         143.5599  137.8167  160.8947 C.3     1  UNL1        0.0521
     18 N         142.8817  137.4962  158.4073 N.ar    1  UNL1       -0.2539
     19 C         138.7829  139.9723  167.9501 C.3     1  UNL1        0.0437
     20 C         139.8127  139.8824  169.0372 C.3     1  UNL1        0.0768
     21 N         140.9336  140.8776  169.0925 N.3     1  UNL1       -0.2737
     22 C         140.8847  142.2250  169.7500 C.3     1  UNL1        0.0721
     23 C         142.2211  142.8802  169.5640 C.3     1  UNL1        0.0187
     24 C         143.0959  141.9378  168.7915 C.3     1  UNL1        0.0174
     25 C         142.3002  140.7001  168.5002 C.3     1  UNL1        0.0576
     26 C         142.7858  139.4964  167.7485 C.3     1  UNL1        0.0173
@<TRIPOS>BOND
     1    11    12    1
     2    12    13   ar
     3    13    14   ar
     4    14    15   ar
     5    15     1    1
     6     1     2   ar
     7     2     3   ar
     8     3     4   ar
     9     4     5   ar
    10     5     6   ar
    11     6    19    1
    12    19    20    1
    13    20    21    1
    14    21    22    1
    15    22    23    1
    16    23    24    1
    17    24    25    1
    18    25    26    1
    19     6     7   ar
    20     7     8   ar
    21     8     9   ar
    22     9    10   ar
    23    15    16   ar
    24    16    17    1
    25    16    18   ar
    26    18    12   ar
    27    10     1   ar
    28     9     4   ar
    29    25    21    1
