@<TRIPOS>MOLECULE
*****
 33 36 0 0 0
SMALL
GASTEIGER

@<TRIPOS>ATOM
      1 C         140.9001  141.1387  167.9537 C.ar    1  UNL1        0.1399
      2 C         140.4841  141.1688  169.3946 C.ar    1  UNL1        0.0554
      3 C         139.2959  140.3740  169.8489 C.ar    1  UNL1        0.1047
      4 N         138.5236  139.5492  168.8624 N.ar    1  UNL1       -0.2119
      5 C         138.9396  139.5191  167.4215 C.ar    1  UNL1        0.2218
      6 N         140.1278  140.3139  166.9672 N.ar    1  UNL1       -0.1983
      7 N         142.0883  141.9335  167.4994 N.pl3   1  UNL1       -0.2705
      8 C         143.1214  142.3731  168.4941 C.3     1  UNL1        0.1187
      9 C         140.6855  145.0320  160.4244 C.3     1  UNL1        0.0718
     10 C         141.1887  144.3306  161.6511 C.ar    1  UNL1        0.1208
     11 N         140.5283  144.3265  162.9979 N.ar    1  UNL1       -0.2309
     12 C         141.3721  143.5035  163.9256 C.ar    1  UNL1        0.0996
     13 C         141.2168  143.1484  165.3746 C.ar    1  UNL1        0.0355
     14 C         142.2436  142.2886  166.0503 C.ar    1  UNL1        0.0543
     15 C         143.4256  141.7840  165.2768 C.ar    1  UNL1        0.0164
     16 C         143.5808  142.1391  163.8278 C.ar    1  UNL1        0.0200
     17 C         142.5541  142.9988  163.1522 C.ar    1  UNL1        0.0787
     18 N         142.4407  143.5100  161.7465 N.ar    1  UNL1       -0.3129
     19 C         143.4094  143.2467  160.6319 C.3     1  UNL1        0.1316
     20 N         138.1673  138.6943  166.4350 N.pl3   1  UNL1       -0.2825
     21 H         137.5056  138.0383  166.7530 H       1  UNL1        0.1551
     22 C         138.4032  138.8688  164.9640 C.ar    1  UNL1        0.0518
     23 C         138.9377  137.7283  164.1497 C.ar    1  UNL1        0.0148
     24 C         139.1736  137.9028  162.6786 C.ar    1  UNL1        0.0026
     25 C         138.8749  139.2179  162.0220 C.ar    1  UNL1        0.0200
     26 C         138.3403  140.3586  162.8364 C.ar    1  UNL1        0.1229
     27 C         138.1044  140.1840  164.3074 C.ar    1  UNL1        0.0346
     28 S         138.0416  141.6737  162.1798 S.O2    1  UNL1        0.0572
     29 N         137.7429  142.9889  161.5232 N.3     1  UNL1       -0.2035
     30 O         136.8543  141.8529  163.0788 O.2     1  UNL1       -0.1532
     31 O         139.2289  141.4946  161.2809 O.2     1  UNL1       -0.1532
     32 H         136.9140  143.4018  161.9507 H       1  UNL1        0.1442
     33 H         137.5746  142.8416  160.5280 H       1  UNL1        0.1442
@<TRIPOS>BOND
     1     9    10    1
     2    10    11   ar
     3    11    12   ar
     4    12    13   ar
     5    13    14   ar
     6    14     7    1
     7     7     8    1
     8     7     1    1
     9     1     2   ar
    10     2     3   ar
    11     3     4   ar
    12     4     5   ar
    13     5    20    1
    14    20    22    1
    15    22    23   ar
    16    23    24   ar
    17    24    25   ar
    18    25    26   ar
    19    26    28    1
    20    28    29    1
    21    28    30    2
    22    28    31    2
    23    26    27   ar
    24     5     6   ar
    25    14    15   ar
    26    15    16   ar
    27    16    17   ar
    28    17    18   ar
    29    18    19    1
    30    18    10   ar
    31    17    12   ar
    32     6     1   ar
    33    27    22   ar
    34    20    21    1
    35    29    32    1
    36    29    33    1
@<TRIPOS>MOLECULE
*****
 33 36 0 0 0
SMALL
GASTEIGER

@<TRIPOS>ATOM
      1 C         139.1118  139.8897  162.6623 C.ar    1  UNL1        0.1399
      2 C         138.3195  139.0356  161.7174 C.ar    1  UNL1        0.0554
      3 C         139.0238  138.2154  160.6777 C.ar    1  UNL1        0.1047
      4 N         140.5204  138.2493  160.5827 N.ar    1  UNL1       -0.2119
      5 C         141.3127  139.1034  161.5275 C.ar    1  UNL1        0.2218
      6 N         140.6084  139.9236  162.5674 N.ar    1  UNL1       -0.1983
      7 N         138.4075  140.7100  163.7021 N.pl3   1  UNL1       -0.2705
      8 C         137.2255  141.5508  163.3202 C.3     1  UNL1        0.1187
      9 C         142.0305  142.7946  170.3468 C.3     1  UNL1        0.0718
     10 C         141.2470  142.1702  169.2304 C.ar    1  UNL1        0.1208
     11 N         141.1115  142.7115  167.8381 N.ar    1  UNL1       -0.2309
     12 C         140.2422  141.7708  167.0575 C.ar    1  UNL1        0.0996
     13 C         139.7646  141.7914  165.6357 C.ar    1  UNL1        0.0355
     14 C         138.8852  140.6893  165.1239 C.ar    1  UNL1        0.0543
     15 C         138.4834  139.5666  166.0338 C.ar    1  UNL1        0.0164
     16 C         138.9610  139.5459  167.4556 C.ar    1  UNL1        0.0200
     17 C         139.8404  140.6480  167.9674 C.ar    1  UNL1        0.0787
     18 N         140.4614  140.8949  169.3103 N.ar    1  UNL1       -0.3129
     19 C         140.3214  140.0200  170.5207 C.3     1  UNL1        0.1316
     20 N         142.8093  139.1372  161.4325 N.pl3   1  UNL1       -0.2825
     21 H         143.2759  138.5455  160.7990 H       1  UNL1        0.1551
     22 C         143.5951  140.0727  162.3028 C.ar    1  UNL1        0.0518
     23 C         144.5500  139.5252  163.3217 C.ar    1  UNL1        0.0148
     24 C         145.3358  140.4607  164.1921 C.ar    1  UNL1        0.0026
     25 C         145.1666  141.9437  164.0435 C.ar    1  UNL1        0.0200
     26 C         144.2116  142.4912  163.0245 C.ar    1  UNL1        0.1229
     27 C         143.4258  141.5557  162.1542 C.ar    1  UNL1        0.0346
     28 S         144.0423  143.9742  162.8759 S.O2    1  UNL1        0.0572
     29 N         143.8731  145.4572  162.7273 N.3     1  UNL1       -0.2035
     30 O         143.8445  143.8036  161.3988 O.2     1  UNL1       -0.1532
     31 O         144.2402  144.1448  164.3530 O.2     1  UNL1       -0.1532
     32 H         143.7079  145.6840  161.7466 H       1  UNL1        0.1442
     33 H         144.7184  145.9296  163.0478 H       1  UNL1        0.1442
@<TRIPOS>BOND
     1     9    10    1
     2    10    11   ar
     3    11    12   ar
     4    12    13   ar
     5    13    14   ar
     6    14     7    1
     7     7     8    1
     8     7     1    1
     9     1     2   ar
    10     2     3   ar
    11     3     4   ar
    12     4     5   ar
    13     5    20    1
    14    20    22    1
    15    22    23   ar
    16    23    24   ar
    17    24    25   ar
    18    25    26   ar
    19    26    28    1
    20    28    29    1
    21    28    30    2
    22    28    31    2
    23    26    27   ar
    24     5     6   ar
    25    14    15   ar
    26    15    16   ar
    27    16    17   ar
    28    17    18   ar
    29    18    19    1
    30    18    10   ar
    31    17    12   ar
    32     6     1   ar
    33    27    22   ar
    34    20    21    1
    35    29    32    1
    36    29    33    1
@<TRIPOS>MOLECULE
*****
 33 36 0 0 0
SMALL
GASTEIGER

@<TRIPOS>ATOM
      1 C         141.0915  144.3150  161.1924 C.ar    1  UNL1        0.1399
      2 C         140.9059  144.9275  159.8357 C.ar    1  UNL1        0.0554
      3 C         141.8962  144.6474  158.7445 C.ar    1  UNL1        0.1047
      4 N         143.0720  143.7547  159.0098 N.ar    1  UNL1       -0.2119
      5 C         143.2576  143.1421  160.3663 C.ar    1  UNL1        0.2218
      6 N         142.2673  143.4222  161.4577 N.ar    1  UNL1       -0.1983
      7 N         140.1012  144.5951  162.2836 N.pl3   1  UNL1       -0.2705
      8 C         139.2481  145.8275  162.2240 C.3     1  UNL1        0.1187
      9 C         137.8778  138.4102  166.5763 C.3     1  UNL1        0.0718
     10 C         138.4502  139.6674  165.9915 C.ar    1  UNL1        0.1208
     11 N         138.2067  140.1854  164.6051 N.ar    1  UNL1       -0.2309
     12 C         138.9726  141.4655  164.4472 C.ar    1  UNL1        0.0996
     13 C         139.1098  142.4176  163.2964 C.ar    1  UNL1        0.0355
     14 C         139.9640  143.6429  163.4345 C.ar    1  UNL1        0.0543
     15 C         140.6809  143.9160  164.7234 C.ar    1  UNL1        0.0164
     16 C         140.5437  142.9638  165.8743 C.ar    1  UNL1        0.0200
     17 C         139.6895  141.7386  165.7362 C.ar    1  UNL1        0.0787
     18 N         139.3667  140.6273  166.6906 N.ar    1  UNL1       -0.3129
     19 C         139.8717  140.4986  168.0972 C.3     1  UNL1        0.1316
     20 N         144.4335  142.2494  160.6317 N.pl3   1  UNL1       -0.2825
     21 H         145.2337  142.3067  160.0611 H       1  UNL1        0.1551
     22 C         144.3901  141.2693  161.7663 C.ar    1  UNL1        0.0518
     23 C         145.3390  141.4140  162.9190 C.ar    1  UNL1        0.0148
     24 C         145.2956  140.4339  164.0537 C.ar    1  UNL1        0.0026
     25 C         144.3035  139.3091  164.0357 C.ar    1  UNL1        0.0200
     26 C         143.3546  139.1644  162.8829 C.ar    1  UNL1        0.1229
     27 C         143.3980  140.1444  161.7483 C.ar    1  UNL1        0.0346
     28 S         142.3624  138.0395  162.8649 S.O2    1  UNL1        0.0572
     29 N         141.3703  136.9147  162.8468 N.3     1  UNL1       -0.2035
     30 O         141.9936  138.3420  164.2870 O.2     1  UNL1       -0.1532
     31 O         142.7312  137.7370  161.4427 O.2     1  UNL1       -0.1532
     32 H         140.9089  136.8536  163.7545 H       1  UNL1        0.1442
     33 H         141.8537  136.0380  162.6515 H       1  UNL1        0.1442
@<TRIPOS>BOND
     1     9    10    1
     2    10    11   ar
     3    11    12   ar
     4    12    13   ar
     5    13    14   ar
     6    14     7    1
     7     7     8    1
     8     7     1    1
     9     1     2   ar
    10     2     3   ar
    11     3     4   ar
    12     4     5   ar
    13     5    20    1
    14    20    22    1
    15    22    23   ar
    16    23    24   ar
    17    24    25   ar
    18    25    26   ar
    19    26    28    1
    20    28    29    1
    21    28    30    2
    22    28    31    2
    23    26    27   ar
    24     5     6   ar
    25    14    15   ar
    26    15    16   ar
    27    16    17   ar
    28    17    18   ar
    29    18    19    1
    30    18    10   ar
    31    17    12   ar
    32     6     1   ar
    33    27    22   ar
    34    20    21    1
    35    29    32    1
    36    29    33    1
@<TRIPOS>MOLECULE
*****
 33 36 0 0 0
SMALL
GASTEIGER

@<TRIPOS>ATOM
      1 C         139.2936  138.7821  163.2035 C.ar    1  UNL1        0.1399
      2 C         138.4593  137.8096  162.4236 C.ar    1  UNL1        0.0554
      3 C         137.5440  138.3044  161.3431 C.ar    1  UNL1        0.1047
      4 N         137.4630  139.7718  161.0426 N.ar    1  UNL1       -0.2119
      5 C         138.2972  140.7443  161.8225 C.ar    1  UNL1        0.2218
      6 N         139.2125  140.2494  162.9030 N.ar    1  UNL1       -0.1983
      7 N         140.2088  138.2872  164.2839 N.pl3   1  UNL1       -0.2705
      8 C         140.9875  137.0206  164.0854 C.3     1  UNL1        0.1187
      9 C         143.3191  142.6244  170.0405 C.3     1  UNL1        0.0718
     10 C         142.4859  141.8039  169.1011 C.ar    1  UNL1        0.1208
     11 N         142.9426  141.2226  167.7959 N.ar    1  UNL1       -0.2309
     12 C         141.7886  140.4801  167.1900 C.ar    1  UNL1        0.0996
     13 C         141.6520  139.7084  165.9111 C.ar    1  UNL1        0.0355
     14 C         140.3455  139.0590  165.5629 C.ar    1  UNL1        0.0543
     15 C         139.1756  139.1813  166.4937 C.ar    1  UNL1        0.0164
     16 C         139.3122  139.9530  167.7727 C.ar    1  UNL1        0.0200
     17 C         140.6187  140.6024  168.1208 C.ar    1  UNL1        0.0787
     18 N         141.0497  141.4205  169.3019 N.ar    1  UNL1       -0.3129
     19 C         140.1945  141.7904  170.4774 C.3     1  UNL1        0.1316
     20 N         138.2162  142.2116  161.5220 N.pl3   1  UNL1       -0.2825
     21 H         137.6989  142.5274  160.7461 H       1  UNL1        0.1551
     22 C         138.9232  143.1979  162.4036 C.ar    1  UNL1        0.0518
     23 C         138.1883  143.8544  163.5345 C.ar    1  UNL1        0.0148
     24 C         138.8953  144.8407  164.4162 C.ar    1  UNL1        0.0026
     25 C         140.3372  145.1706  164.1669 C.ar    1  UNL1        0.0200
     26 C         141.0721  144.5140  163.0360 C.ar    1  UNL1        0.1229
     27 C         140.3651  143.5277  162.1543 C.ar    1  UNL1        0.0346
     28 S         142.5140  144.8439  162.7867 S.O2    1  UNL1        0.0572
     29 N         143.9559  145.1737  162.5374 N.3     1  UNL1       -0.2035
     30 O         142.6805  145.2085  164.2321 O.2     1  UNL1       -0.1532
     31 O         142.3476  144.4792  161.3412 O.2     1  UNL1       -0.1532
     32 H         144.3895  145.4822  163.4076 H       1  UNL1        0.1442
     33 H         144.0193  145.9184  161.8433 H       1  UNL1        0.1442
@<TRIPOS>BOND
     1     9    10    1
     2    10    11   ar
     3    11    12   ar
     4    12    13   ar
     5    13    14   ar
     6    14     7    1
     7     7     8    1
     8     7     1    1
     9     1     2   ar
    10     2     3   ar
    11     3     4   ar
    12     4     5   ar
    13     5    20    1
    14    20    22    1
    15    22    23   ar
    16    23    24   ar
    17    24    25   ar
    18    25    26   ar
    19    26    28    1
    20    28    29    1
    21    28    30    2
    22    28    31    2
    23    26    27   ar
    24     5     6   ar
    25    14    15   ar
    26    15    16   ar
    27    16    17   ar
    28    17    18   ar
    29    18    19    1
    30    18    10   ar
    31    17    12   ar
    32     6     1   ar
    33    27    22   ar
    34    20    21    1
    35    29    32    1
    36    29    33    1
@<TRIPOS>MOLECULE
*****
 33 36 0 0 0
SMALL
GASTEIGER

@<TRIPOS>ATOM
      1 C         141.0615  140.7913  168.4243 C.ar    1  UNL1        0.1399
      2 C         140.5289  140.8638  169.8247 C.ar    1  UNL1        0.0554
      3 C         139.1822  140.2864  170.1457 C.ar    1  UNL1        0.1047
      4 N         138.3681  139.6366  169.0664 N.ar    1  UNL1       -0.2119
      5 C         138.9007  139.5641  167.6660 C.ar    1  UNL1        0.2218
      6 N         140.2474  140.1415  167.3449 N.ar    1  UNL1       -0.1983
      7 N         142.4082  141.3687  168.1032 N.pl3   1  UNL1       -0.2705
      8 C         143.2658  141.9268  169.2000 C.3     1  UNL1        0.1187
      9 C         144.1425  139.0195  160.8165 C.3     1  UNL1        0.0718
     10 C         143.9204  139.7208  162.1237 C.ar    1  UNL1        0.1208
     11 N         143.3097  139.1191  163.3545 N.ar    1  UNL1       -0.2309
     12 C         143.2819  140.1734  164.4212 C.ar    1  UNL1        0.0996
     13 C         142.7928  140.1540  165.8390 C.ar    1  UNL1        0.0355
     14 C         142.8973  141.3880  166.6853 C.ar    1  UNL1        0.0543
     15 C         143.4908  142.6414  166.1137 C.ar    1  UNL1        0.0164
     16 C         143.9799  142.6608  164.6958 C.ar    1  UNL1        0.0200
     17 C         143.8755  141.4267  163.8496 C.ar    1  UNL1        0.0787
     18 N         144.2701  141.1470  162.4297 N.ar    1  UNL1       -0.3129
     19 C         144.9032  142.1224  161.4821 C.3     1  UNL1        0.1316
     20 N         138.0866  138.9143  166.5867 N.pl3   1  UNL1       -0.2825
     21 H         137.2882  138.3883  166.8215 H       1  UNL1        0.1551
     22 C         138.4889  139.0658  165.1497 C.ar    1  UNL1        0.0518
     23 C         139.2916  137.9912  164.4783 C.ar    1  UNL1        0.0148
     24 C         139.6939  138.1427  163.0412 C.ar    1  UNL1        0.0026
     25 C         139.2936  139.3689  162.2755 C.ar    1  UNL1        0.0200
     26 C         138.4909  140.4436  162.9470 C.ar    1  UNL1        0.1229
     27 C         138.0886  140.2920  164.3841 C.ar    1  UNL1        0.0346
     28 S         138.0906  141.6698  162.1814 S.O2    1  UNL1        0.0572
     29 N         137.6903  142.8960  161.4158 N.3     1  UNL1       -0.2035
     30 O         136.9075  141.8484  163.0860 O.2     1  UNL1       -0.1532
     31 O         139.2738  141.4912  161.2768 O.2     1  UNL1       -0.1532
     32 H         136.8411  143.2884  161.8222 H       1  UNL1        0.1442
     33 H         137.5177  142.6474  160.4418 H       1  UNL1        0.1442
@<TRIPOS>BOND
     1     9    10    1
     2    10    11   ar
     3    11    12   ar
     4    12    13   ar
     5    13    14   ar
     6    14     7    1
     7     7     8    1
     8     7     1    1
     9     1     2   ar
    10     2     3   ar
    11     3     4   ar
    12     4     5   ar
    13     5    20    1
    14    20    22    1
    15    22    23   ar
    16    23    24   ar
    17    24    25   ar
    18    25    26   ar
    19    26    28    1
    20    28    29    1
    21    28    30    2
    22    28    31    2
    23    26    27   ar
    24     5     6   ar
    25    14    15   ar
    26    15    16   ar
    27    16    17   ar
    28    17    18   ar
    29    18    19    1
    30    18    10   ar
    31    17    12   ar
    32     6     1   ar
    33    27    22   ar
    34    20    21    1
    35    29    32    1
    36    29    33    1
@<TRIPOS>MOLECULE
*****
 33 36 0 0 0
SMALL
GASTEIGER

@<TRIPOS>ATOM
      1 C         142.4714  138.9747  162.7516 C.ar    1  UNL1        0.1399
      2 C         143.0662  137.9933  161.7856 C.ar    1  UNL1        0.0554
      3 C         143.8340  138.4848  160.5945 C.ar    1  UNL1        0.1047
      4 N         144.0071  139.9576  160.3693 N.ar    1  UNL1       -0.2119
      5 C         143.4123  140.9390  161.3352 C.ar    1  UNL1        0.2218
      6 N         142.6444  140.4476  162.5264 N.ar    1  UNL1       -0.1983
      7 N         141.7036  138.4833  163.9428 N.pl3   1  UNL1       -0.2705
      8 C         140.8327  137.2677  163.8243 C.3     1  UNL1        0.1187
      9 C         140.4325  143.7238  169.6476 C.3     1  UNL1        0.0718
     10 C         140.8663  142.6100  168.7413 C.ar    1  UNL1        0.1208
     11 N         140.3467  142.3445  167.3595 N.ar    1  UNL1       -0.2309
     12 C         141.0552  141.1365  166.8220 C.ar    1  UNL1        0.0996
     13 C         140.9521  140.4125  165.5124 C.ar    1  UNL1        0.0355
     14 C         141.8066  139.2074  165.2524 C.ar    1  UNL1        0.0543
     15 C         142.7640  138.7263  166.3021 C.ar    1  UNL1        0.0164
     16 C         142.8671  139.4503  167.6117 C.ar    1  UNL1        0.0200
     17 C         142.0126  140.6554  167.8717 C.ar    1  UNL1        0.0787
     18 N         141.8959  141.5661  169.0579 N.ar    1  UNL1       -0.3129
     19 C         142.6725  141.4527  170.3362 C.3     1  UNL1        0.1316
     20 N         143.5854  142.4119  161.1100 N.pl3   1  UNL1       -0.2825
     21 H         144.1798  142.7339  160.3943 H       1  UNL1        0.1551
     22 C         142.8529  143.3941  161.9752 C.ar    1  UNL1        0.0518
     23 C         143.6126  144.2592  162.9366 C.ar    1  UNL1        0.0148
     24 C         142.8801  145.2414  163.8019 C.ar    1  UNL1        0.0026
     25 C         141.3878  145.3586  163.7057 C.ar    1  UNL1        0.0200
     26 C         140.6280  144.4934  162.7442 C.ar    1  UNL1        0.1229
     27 C         141.3605  143.5112  161.8790 C.ar    1  UNL1        0.0346
     28 S         139.1357  144.6106  162.6480 S.O2    1  UNL1        0.0572
     29 N         137.6434  144.7277  162.5518 N.3     1  UNL1       -0.2035
     30 O         139.0630  144.8930  164.1194 O.2     1  UNL1       -0.1532
     31 O         139.2084  144.3282  161.1766 O.2     1  UNL1       -0.1532
     32 H         137.2585  144.9353  163.4733 H       1  UNL1        0.1442
     33 H         137.2545  143.8484  162.2112 H       1  UNL1        0.1442
@<TRIPOS>BOND
     1     9    10    1
     2    10    11   ar
     3    11    12   ar
     4    12    13   ar
     5    13    14   ar
     6    14     7    1
     7     7     8    1
     8     7     1    1
     9     1     2   ar
    10     2     3   ar
    11     3     4   ar
    12     4     5   ar
    13     5    20    1
    14    20    22    1
    15    22    23   ar
    16    23    24   ar
    17    24    25   ar
    18    25    26   ar
    19    26    28    1
    20    28    29    1
    21    28    30    2
    22    28    31    2
    23    26    27   ar
    24     5     6   ar
    25    14    15   ar
    26    15    16   ar
    27    16    17   ar
    28    17    18   ar
    29    18    19    1
    30    18    10   ar
    31    17    12   ar
    32     6     1   ar
    33    27    22   ar
    34    20    21    1
    35    29    32    1
    36    29    33    1
@<TRIPOS>MOLECULE
*****
 33 36 0 0 0
SMALL
GASTEIGER

@<TRIPOS>ATOM
      1 C         143.2248  139.6129  162.8197 C.ar    1  UNL1        0.1399
      2 C         143.8051  138.4304  162.1019 C.ar    1  UNL1        0.0554
      3 C         143.0748  137.8264  160.9392 C.ar    1  UNL1        0.1047
      4 N         141.7643  138.4047  160.4943 N.ar    1  UNL1       -0.2119
      5 C         141.1839  139.5871  161.2120 C.ar    1  UNL1        0.2218
      6 N         141.9142  140.1912  162.3748 N.ar    1  UNL1       -0.1983
      7 N         143.9550  140.2169  163.9823 N.pl3   1  UNL1       -0.2705
      8 C         145.3410  140.7599  163.7973 C.3     1  UNL1        0.1187
      9 C         139.9755  142.9196  170.1857 C.3     1  UNL1        0.0718
     10 C         140.7591  142.1617  169.1555 C.ar    1  UNL1        0.1208
     11 N         141.1826  142.6795  167.8129 N.ar    1  UNL1       -0.2309
     12 C         141.9421  141.5907  167.1145 C.ar    1  UNL1        0.0996
     13 C         142.5977  141.5297  165.7668 C.ar    1  UNL1        0.0355
     14 C         143.2993  140.2779  165.3301 C.ar    1  UNL1        0.0543
     15 C         143.3453  139.0871  166.2411 C.ar    1  UNL1        0.0164
     16 C         142.6896  139.1481  167.5888 C.ar    1  UNL1        0.0200
     17 C         141.9880  140.3999  168.0255 C.ar    1  UNL1        0.0787
     18 N         141.2569  140.7528  169.2869 N.ar    1  UNL1       -0.3129
     19 C         141.0585  139.8545  170.4716 C.3     1  UNL1        0.1316
     20 N         139.8734  140.1654  160.7671 N.pl3   1  UNL1       -0.2825
     21 H         139.4390  139.8291  159.9501 H       1  UNL1        0.1551
     22 C         139.2247  141.2560  161.5669 C.ar    1  UNL1        0.0518
     23 C         138.0144  140.9561  162.4007 C.ar    1  UNL1        0.0148
     24 C         137.3656  142.0467  163.2005 C.ar    1  UNL1        0.0026
     25 C         137.9272  143.4372  163.1666 C.ar    1  UNL1        0.0200
     26 C         139.1376  143.7370  162.3328 C.ar    1  UNL1        0.1229
     27 C         139.7863  142.6464  161.5330 C.ar    1  UNL1        0.0346
     28 S         139.6993  145.1275  162.2989 S.O2    1  UNL1        0.0572
     29 N         140.2609  146.5180  162.2650 N.3     1  UNL1       -0.2035
     30 O         140.0244  145.0318  163.7602 O.2     1  UNL1       -0.1532
     31 O         139.3741  145.2232  160.8377 O.2     1  UNL1       -0.1532
     32 H         140.5967  146.7718  163.1942 H       1  UNL1        0.1442
     33 H         139.5331  147.1717  161.9762 H       1  UNL1        0.1442
@<TRIPOS>BOND
     1     9    10    1
     2    10    11   ar
     3    11    12   ar
     4    12    13   ar
     5    13    14   ar
     6    14     7    1
     7     7     8    1
     8     7     1    1
     9     1     2   ar
    10     2     3   ar
    11     3     4   ar
    12     4     5   ar
    13     5    20    1
    14    20    22    1
    15    22    23   ar
    16    23    24   ar
    17    24    25   ar
    18    25    26   ar
    19    26    28    1
    20    28    29    1
    21    28    30    2
    22    28    31    2
    23    26    27   ar
    24     5     6   ar
    25    14    15   ar
    26    15    16   ar
    27    16    17   ar
    28    17    18   ar
    29    18    19    1
    30    18    10   ar
    31    17    12   ar
    32     6     1   ar
    33    27    22   ar
    34    20    21    1
    35    29    32    1
    36    29    33    1
@<TRIPOS>MOLECULE
*****
 33 36 0 0 0
SMALL
GASTEIGER

@<TRIPOS>ATOM
      1 C         138.8590  139.6954  163.8174 C.ar    1  UNL1        0.1399
      2 C         138.1147  139.1012  162.6585 C.ar    1  UNL1        0.0554
      3 C         137.8376  139.9312  161.4401 C.ar    1  UNL1        0.1047
      4 N         138.3047  141.3553  161.3807 N.ar    1  UNL1       -0.2119
      5 C         139.0490  141.9495  162.5395 C.ar    1  UNL1        0.2218
      6 N         139.3261  141.1196  163.7579 N.ar    1  UNL1       -0.1983
      7 N         139.1361  138.8654  165.0357 N.pl3   1  UNL1       -0.2705
      8 C         138.8492  137.3932  165.0214 C.3     1  UNL1        0.1187
      9 C         144.1012  142.5300  169.8877 C.3     1  UNL1        0.0718
     10 C         142.9742  141.8310  169.1868 C.ar    1  UNL1        0.1208
     11 N         142.9784  141.3604  167.7625 N.ar    1  UNL1       -0.2309
     12 C         141.6520  140.7184  167.4825 C.ar    1  UNL1        0.0996
     13 C         141.0880  140.0762  166.2498 C.ar    1  UNL1        0.0355
     14 C         139.7001  139.5077  166.2684 C.ar    1  UNL1        0.0543
     15 C         138.8761  139.5815  167.5196 C.ar    1  UNL1        0.0164
     16 C         139.4400  140.2237  168.7523 C.ar    1  UNL1        0.0200
     17 C         140.8280  140.7922  168.7337 C.ar    1  UNL1        0.0787
     18 N         141.6451  141.4798  169.7870 N.ar    1  UNL1       -0.3129
     19 C         141.2097  141.7659  171.1936 C.3     1  UNL1        0.1316
     20 N         139.5161  143.3737  162.4801 N.pl3   1  UNL1       -0.2825
     21 H         138.9062  144.0790  162.1641 H       1  UNL1        0.1551
     22 C         140.9124  143.7232  162.9020 C.ar    1  UNL1        0.0518
     23 C         141.2069  145.0802  163.4693 C.ar    1  UNL1        0.0148
     24 C         142.6033  145.4298  163.8912 C.ar    1  UNL1        0.0026
     25 C         143.7051  144.4224  163.7459 C.ar    1  UNL1        0.0200
     26 C         143.4105  143.0654  163.1786 C.ar    1  UNL1        0.1229
     27 C         142.0142  142.7158  162.7567 C.ar    1  UNL1        0.0346
     28 S         144.5123  142.0579  163.0332 S.O2    1  UNL1        0.0572
     29 N         145.6141  141.0505  162.8879 N.3     1  UNL1       -0.2035
     30 O         144.8337  142.6055  161.6742 O.2     1  UNL1       -0.1532
     31 O         144.1910  141.5104  164.3922 O.2     1  UNL1       -0.1532
     32 H         146.0699  141.1732  161.9837 H       1  UNL1        0.1442
     33 H         145.2246  140.1097  162.9474 H       1  UNL1        0.1442
@<TRIPOS>BOND
     1     9    10    1
     2    10    11   ar
     3    11    12   ar
     4    12    13   ar
     5    13    14   ar
     6    14     7    1
     7     7     8    1
     8     7     1    1
     9     1     2   ar
    10     2     3   ar
    11     3     4   ar
    12     4     5   ar
    13     5    20    1
    14    20    22    1
    15    22    23   ar
    16    23    24   ar
    17    24    25   ar
    18    25    26   ar
    19    26    28    1
    20    28    29    1
    21    28    30    2
    22    28    31    2
    23    26    27   ar
    24     5     6   ar
    25    14    15   ar
    26    15    16   ar
    27    16    17   ar
    28    17    18   ar
    29    18    19    1
    30    18    10   ar
    31    17    12   ar
    32     6     1   ar
    33    27    22   ar
    34    20    21    1
    35    29    32    1
    36    29    33    1
@<TRIPOS>MOLECULE
*****
 33 36 0 0 0
SMALL
GASTEIGER

@<TRIPOS>ATOM
      1 C         139.4009  139.7547  167.5122 C.ar    1  UNL1        0.1399
      2 C         139.0346  140.0484  168.9369 C.ar    1  UNL1        0.0554
      3 C         139.9815  140.8149  169.8120 C.ar    1  UNL1        0.1047
      4 N         141.2947  141.2878  169.2625 N.ar    1  UNL1       -0.2119
      5 C         141.6609  140.9942  167.8379 C.ar    1  UNL1        0.2218
      6 N         140.7141  140.2277  166.9627 N.ar    1  UNL1       -0.1983
      7 N         138.4540  138.9882  166.6371 N.pl3   1  UNL1       -0.2705
      8 C         137.3427  138.1906  167.2526 C.3     1  UNL1        0.1187
      9 C         138.3202  141.5126  159.2052 C.3     1  UNL1        0.0718
     10 C         138.4561  140.7894  160.5124 C.ar    1  UNL1        0.1208
     11 N         138.0796  141.3275  161.8610 N.ar    1  UNL1       -0.2309
     12 C         138.3831  140.2718  162.8825 C.ar    1  UNL1        0.0996
     13 C         138.2187  140.2408  164.3731 C.ar    1  UNL1        0.0355
     14 C         138.6184  139.0193  165.1464 C.ar    1  UNL1        0.0543
     15 C         139.1825  137.8288  164.4292 C.ar    1  UNL1        0.0164
     16 C         139.3469  137.8598  162.9385 C.ar    1  UNL1        0.0200
     17 C         138.9472  139.0813  162.1652 C.ar    1  UNL1        0.0787
     18 N         138.9923  139.4013  160.7004 N.ar    1  UNL1       -0.3129
     19 C         139.4869  138.4925  159.6143 C.3     1  UNL1        0.1316
     20 N         142.9741  141.4671  167.2884 N.pl3   1  UNL1       -0.2825
     21 H         143.7609  141.5278  167.8770 H       1  UNL1        0.1551
     22 C         143.0885  141.8476  165.8420 C.ar    1  UNL1        0.0518
     23 C         143.9078  141.0071  164.9080 C.ar    1  UNL1        0.0148
     24 C         144.0222  141.3875  163.4615 C.ar    1  UNL1        0.0026
     25 C         143.3174  142.6084  162.9491 C.ar    1  UNL1        0.0200
     26 C         142.4981  143.4489  163.8831 C.ar    1  UNL1        0.1229
     27 C         142.3837  143.0685  165.3295 C.ar    1  UNL1        0.0346
     28 S         141.7933  144.6699  163.3707 S.O2    1  UNL1        0.0572
     29 N         141.0885  145.8908  162.8583 N.3     1  UNL1       -0.2035
     30 O         140.7028  143.8053  162.8108 O.2     1  UNL1       -0.1532
     31 O         142.8838  145.5344  163.9306 O.2     1  UNL1       -0.1532
     32 H         140.2296  145.6133  162.3832 H       1  UNL1        0.1442
     33 H         141.6953  146.3839  162.2033 H       1  UNL1        0.1442
@<TRIPOS>BOND
     1     9    10    1
     2    10    11   ar
     3    11    12   ar
     4    12    13   ar
     5    13    14   ar
     6    14     7    1
     7     7     8    1
     8     7     1    1
     9     1     2   ar
    10     2     3   ar
    11     3     4   ar
    12     4     5   ar
    13     5    20    1
    14    20    22    1
    15    22    23   ar
    16    23    24   ar
    17    24    25   ar
    18    25    26   ar
    19    26    28    1
    20    28    29    1
    21    28    30    2
    22    28    31    2
    23    26    27   ar
    24     5     6   ar
    25    14    15   ar
    26    15    16   ar
    27    16    17   ar
    28    17    18   ar
    29    18    19    1
    30    18    10   ar
    31    17    12   ar
    32     6     1   ar
    33    27    22   ar
    34    20    21    1
    35    29    32    1
    36    29    33    1
