@<TRIPOS>MOLECULE
*****
 37 40 0 0 0
SMALL
GASTEIGER

@<TRIPOS>ATOM
      1 C         142.0939  138.8799  161.6246 C.ar    1  UNL1        0.2204
      2 N         140.8731  139.3358  160.8818 N.ar    1  UNL1       -0.2089
      3 C         140.6825  138.9514  159.4445 C.ar    1  UNL1        0.1402
      4 C         141.7127  138.1109  158.7499 C.ar    1  UNL1        0.1773
      5 C         142.9335  137.6550  159.4927 C.ar    1  UNL1        0.1402
      6 N         143.1241  138.0395  160.9301 N.ar    1  UNL1       -0.2089
      7 C         141.0252  137.1164  163.8035 C.3     1  UNL1        0.0233
      8 C         141.7502  138.3826  164.1514 C.3     1  UNL1        0.0955
      9 C         141.9408  138.7671  165.5886 C.3     1  UNL1        0.1149
     10 N         142.6658  140.0334  165.9364 N.pl3   1  UNL1       -0.2590
     11 C         143.2001  140.9151  164.8470 C.3     1  UNL1        0.1166
     12 C         143.0095  140.5306  163.4098 C.3     1  UNL1        0.1151
     13 N         142.2845  139.2644  163.0619 N.pl3   1  UNL1       -0.2764
     14 C         142.8564  140.4179  167.3738 C.ar    1  UNL1        0.3120
     15 N         142.8868  139.4770  168.5416 N.ar    1  UNL1       -0.0922
     16 N         143.0992  140.2884  169.7852 N.ar    1  UNL1       -0.1018
     17 C         143.2001  141.7308  169.3860 C.ar    1  UNL1        0.3233
     18 O         143.0501  141.8108  167.8956 O.2     1  UNL1       -0.4012
     19 C         143.4137  142.8897  170.3141 C.3     1  UNL1        0.4711
     20 F         143.6272  144.0486  171.2422 F       1  UNL1       -0.1619
     21 F         144.8979  142.7458  170.1523 F       1  UNL1       -0.1619
     22 F         141.9294  143.0336  170.4758 F       1  UNL1       -0.1619
     23 O         141.5221  137.7265  157.3127 O.3     1  UNL1       -0.4674
     24 C         142.6123  137.0035  156.5787 C.3     1  UNL1        0.2344
     25 C         142.5338  135.5171  156.3936 C.ar    1  UNL1        0.0486
     26 C         143.4795  134.6182  157.1336 C.ar    1  UNL1        0.0013
     27 C         143.4010  133.1316  156.9484 C.ar    1  UNL1       -0.0034
     28 C         142.3769  132.5442  156.0232 C.ar    1  UNL1       -0.0057
     29 C         141.4312  133.4431  155.2832 C.ar    1  UNL1        0.0261
     30 C         141.5097  134.9295  155.4683 C.ar    1  UNL1        0.1393
     31 F         140.5640  135.8285  154.7283 F       1  UNL1       -0.2044
     32 C         142.2984  131.0577  155.8380 C.3     1  UNL1        0.1278
     33 S         143.5548  130.2554  155.6713 S.3     1  UNL1        0.0697
     34 C         144.8111  129.4530  155.5045 C.3     1  UNL1        0.1171
     35 N         143.7248  130.8091  154.2876 N.2     1  UNL1       -0.2504
     36 O         143.3848  129.7016  157.0549 O.2     1  UNL1       -0.2460
     37 H         142.9829  131.2911  153.8557 H       1  UNL1        0.1971
@<TRIPOS>BOND
     1     8     7    1
     2     8     9    1
     3     9    10    1
     4    10    14    1
     5    14    15   ar
     6    15    16   ar
     7    16    17   ar
     8    17    19    1
     9    19    20    1
    10    19    21    1
    11    19    22    1
    12    17    18   ar
    13    10    11    1
    14    11    12    1
    15    12    13    1
    16    13     1    1
    17     1     2   ar
    18     2     3   ar
    19     3     4   ar
    20     4    23    1
    21    23    24    1
    22    24    25    1
    23    25    26   ar
    24    26    27   ar
    25    27    28   ar
    26    28    32    1
    27    32    33    1
    28    33    34    1
    29    33    35    2
    30    33    36    2
    31    28    29   ar
    32    29    30   ar
    33    30    31    1
    34     4     5   ar
    35     5     6   ar
    36    13     8    1
    37     6     1   ar
    38    18    14   ar
    39    30    25   ar
    40    35    37    1
@<TRIPOS>MOLECULE
*****
 37 40 0 0 0
SMALL
GASTEIGER

@<TRIPOS>ATOM
      1 C         140.9203  144.5635  159.8318 C.ar    1  UNL1        0.2204
      2 N         139.7527  144.1432  158.9892 N.ar    1  UNL1       -0.2089
      3 C         139.6635  144.5834  157.5580 C.ar    1  UNL1        0.1402
      4 C         140.7420  145.4440  156.9695 C.ar    1  UNL1        0.1773
      5 C         141.9096  145.8644  157.8121 C.ar    1  UNL1        0.1402
      6 N         141.9987  145.4241  159.2433 N.ar    1  UNL1       -0.2089
      7 C         139.7069  146.2477  161.9977 C.3     1  UNL1        0.0233
      8 C         140.4028  144.9653  162.3459 C.3     1  UNL1        0.0955
      9 C         140.4919  144.5250  163.7770 C.3     1  UNL1        0.1149
     10 N         141.1878  143.2426  164.1252 N.pl3   1  UNL1       -0.2590
     11 C         141.7945  142.4005  163.0423 C.3     1  UNL1        0.1166
     12 C         141.7054  142.8408  161.6112 C.3     1  UNL1        0.1151
     13 N         141.0095  144.1232  161.2630 N.pl3   1  UNL1       -0.2764
     14 C         141.2770  142.8023  165.5564 C.ar    1  UNL1        0.3120
     15 N         142.3538  141.9425  166.1490 N.ar    1  UNL1       -0.0922
     16 N         142.0473  141.7534  167.6051 N.ar    1  UNL1       -0.1018
     17 C         140.7809  142.4963  167.9125 C.ar    1  UNL1        0.3233
     18 O         140.3049  143.1445  166.6464 O.2     1  UNL1       -0.4012
     19 C         140.1087  142.5768  169.2510 C.3     1  UNL1        0.4711
     20 F         139.4365  142.6572  170.5895 F       1  UNL1       -0.1619
     21 F         139.7366  141.1271  169.1513 F       1  UNL1       -0.1619
     22 F         140.4808  144.0264  169.3507 F       1  UNL1       -0.1619
     23 O         140.6528  145.8843  155.5383 O.3     1  UNL1       -0.4674
     24 C         139.3933  146.5171  155.0254 C.3     1  UNL1        0.2344
     25 C         139.2565  148.0108  155.0109 C.ar    1  UNL1        0.0486
     26 C         138.5144  148.7067  156.1132 C.ar    1  UNL1        0.0013
     27 C         138.3777  150.2005  156.0986 C.ar    1  UNL1       -0.0034
     28 C         138.9829  150.9982  154.9818 C.ar    1  UNL1       -0.0057
     29 C         139.7249  150.3022  153.8795 C.ar    1  UNL1        0.0261
     30 C         139.8617  148.8086  153.8940 C.ar    1  UNL1        0.1393
     31 F         140.6038  148.1126  152.7918 F       1  UNL1       -0.2044
     32 C         138.8461  152.4918  154.9673 C.3     1  UNL1        0.1278
     33 S         139.0784  153.2539  153.6964 S.3     1  UNL1        0.0697
     34 C         139.3107  154.0160  152.4255 C.3     1  UNL1        0.1171
     35 N         137.6666  152.9767  153.2721 N.2     1  UNL1       -0.2504
     36 O         140.4902  153.5312  154.1206 O.2     1  UNL1       -0.2460
     37 H         137.1316  152.3036  153.7518 H       1  UNL1        0.1971
@<TRIPOS>BOND
     1     8     7    1
     2     8     9    1
     3     9    10    1
     4    10    14    1
     5    14    15   ar
     6    15    16   ar
     7    16    17   ar
     8    17    19    1
     9    19    20    1
    10    19    21    1
    11    19    22    1
    12    17    18   ar
    13    10    11    1
    14    11    12    1
    15    12    13    1
    16    13     1    1
    17     1     2   ar
    18     2     3   ar
    19     3     4   ar
    20     4    23    1
    21    23    24    1
    22    24    25    1
    23    25    26   ar
    24    26    27   ar
    25    27    28   ar
    26    28    32    1
    27    32    33    1
    28    33    34    1
    29    33    35    2
    30    33    36    2
    31    28    29   ar
    32    29    30   ar
    33    30    31    1
    34     4     5   ar
    35     5     6   ar
    36    13     8    1
    37     6     1   ar
    38    18    14   ar
    39    30    25   ar
    40    35    37    1
@<TRIPOS>MOLECULE
*****
 37 40 0 0 0
SMALL
GASTEIGER

@<TRIPOS>ATOM
      1 C         138.9845  142.4290  160.8630 C.ar    1  UNL1        0.2204
      2 N         137.7856  142.7456  161.7070 N.ar    1  UNL1       -0.2089
      3 C         137.4861  141.9212  162.9238 C.ar    1  UNL1        0.1402
      4 C         138.3856  140.7801  163.2967 C.ar    1  UNL1        0.1773
      5 C         139.5846  140.4635  162.4526 C.ar    1  UNL1        0.1402
      6 N         139.8840  141.2880  161.2358 N.ar    1  UNL1       -0.2089
      7 C         140.5730  144.9609  161.1201 C.3     1  UNL1        0.0233
      8 C         140.0781  144.5194  159.7747 C.3     1  UNL1        0.0955
      9 C         140.3775  145.3438  158.5579 C.3     1  UNL1        0.1149
     10 N         139.8826  144.9022  157.2125 N.pl3   1  UNL1       -0.2590
     11 C         139.0884  143.6363  157.0839 C.3     1  UNL1        0.1166
     12 C         138.7890  142.8119  158.3007 C.3     1  UNL1        0.1151
     13 N         139.2839  143.2535  159.6461 N.pl3   1  UNL1       -0.2764
     14 C         140.1820  145.7267  155.9956 C.ar    1  UNL1        0.3120
     15 N         141.1080  145.3460  154.8786 N.ar    1  UNL1       -0.0922
     16 N         141.1063  146.4606  153.8748 N.ar    1  UNL1       -0.1018
     17 C         140.1792  147.5302  154.3714 C.ar    1  UNL1        0.3233
     18 O         139.6080  147.0766  155.6821 O.2     1  UNL1       -0.4012
     19 C         139.8765  148.8259  153.6789 C.3     1  UNL1        0.4711
     20 F         139.5738  150.1216  152.9864 F       1  UNL1       -0.1619
     21 F         139.0254  149.2476  154.8399 F       1  UNL1       -0.1619
     22 F         140.7276  148.4042  152.5180 F       1  UNL1       -0.1619
     23 O         138.0862  139.9557  164.5135 O.3     1  UNL1       -0.4674
     24 C         139.0990  138.9727  165.0212 C.3     1  UNL1        0.2344
     25 C         140.0688  139.3798  166.0907 C.ar    1  UNL1        0.0486
     26 C         141.5251  139.5309  165.7646 C.ar    1  UNL1        0.0013
     27 C         142.4949  139.9380  166.8341 C.ar    1  UNL1       -0.0034
     28 C         142.0083  140.1941  168.2297 C.ar    1  UNL1       -0.0057
     29 C         140.5520  140.0431  168.5558 C.ar    1  UNL1        0.0261
     30 C         139.5822  139.6360  167.4863 C.ar    1  UNL1        0.1393
     31 F         138.1259  139.4849  167.8124 F       1  UNL1       -0.2044
     32 C         142.9781  140.6013  169.2991 C.3     1  UNL1        0.1278
     33 S         142.8572  141.9484  169.9478 S.3     1  UNL1        0.0697
     34 C         142.7364  143.2954  170.5965 C.3     1  UNL1        0.1171
     35 N         142.3413  141.3000  171.1982 N.2     1  UNL1       -0.2504
     36 O         143.3732  142.5967  168.6974 O.2     1  UNL1       -0.2460
     37 H         142.0613  140.3563  171.1838 H       1  UNL1        0.1971
@<TRIPOS>BOND
     1     8     7    1
     2     8     9    1
     3     9    10    1
     4    10    14    1
     5    14    15   ar
     6    15    16   ar
     7    16    17   ar
     8    17    19    1
     9    19    20    1
    10    19    21    1
    11    19    22    1
    12    17    18   ar
    13    10    11    1
    14    11    12    1
    15    12    13    1
    16    13     1    1
    17     1     2   ar
    18     2     3   ar
    19     3     4   ar
    20     4    23    1
    21    23    24    1
    22    24    25    1
    23    25    26   ar
    24    26    27   ar
    25    27    28   ar
    26    28    32    1
    27    32    33    1
    28    33    34    1
    29    33    35    2
    30    33    36    2
    31    28    29   ar
    32    29    30   ar
    33    30    31    1
    34     4     5   ar
    35     5     6   ar
    36    13     8    1
    37     6     1   ar
    38    18    14   ar
    39    30    25   ar
    40    35    37    1
@<TRIPOS>MOLECULE
*****
 37 40 0 0 0
SMALL
GASTEIGER

@<TRIPOS>ATOM
      1 C         138.9993  141.6658  160.0510 C.ar    1  UNL1        0.2204
      2 N         137.8712  141.7652  161.0347 N.ar    1  UNL1       -0.2089
      3 C         137.6678  140.6842  162.0544 C.ar    1  UNL1        0.1402
      4 C         138.5925  139.5036  162.0905 C.ar    1  UNL1        0.1773
      5 C         139.7206  139.4041  161.1068 C.ar    1  UNL1        0.1402
      6 N         139.9239  140.4853  160.0871 N.ar    1  UNL1       -0.2089
      7 C         137.6674  141.4688  157.3701 C.3     1  UNL1        0.0233
      8 C         138.5367  142.6484  157.6908 C.3     1  UNL1        0.0955
      9 C         138.7401  143.7295  156.6711 C.3     1  UNL1        0.1149
     10 N         139.6093  144.9092  156.9919 N.pl3   1  UNL1       -0.2590
     11 C         140.2752  145.0077  158.3324 C.3     1  UNL1        0.1166
     12 C         140.0719  143.9265  159.3520 C.3     1  UNL1        0.1151
     13 N         139.2026  142.7469  159.0313 N.pl3   1  UNL1       -0.2764
     14 C         139.8127  145.9903  155.9721 C.ar    1  UNL1        0.3120
     15 N         140.6541  145.8881  154.7346 N.ar    1  UNL1       -0.0922
     16 N         140.5717  147.1980  154.0086 N.ar    1  UNL1       -0.1018
     17 C         139.6794  148.1100  154.7974 C.ar    1  UNL1        0.3233
     18 O         139.2103  147.3635  156.0110 O.2     1  UNL1       -0.4012
     19 C         139.3194  149.5206  154.4361 C.3     1  UNL1        0.4711
     20 F         138.9594  150.9312  154.0748 F       1  UNL1       -0.1619
     21 F         138.5501  149.6523  155.7170 F       1  UNL1       -0.1619
     22 F         140.0888  149.3889  153.1552 F       1  UNL1       -0.1619
     23 O         138.3891  138.4225  163.1102 O.3     1  UNL1       -0.4674
     24 C         139.4655  138.1236  164.1113 C.3     1  UNL1        0.2344
     25 C         139.3891  138.7063  165.4913 C.ar    1  UNL1        0.0486
     26 C         138.1295  138.5699  166.2944 C.ar    1  UNL1        0.0013
     27 C         138.0531  139.1527  167.6745 C.ar    1  UNL1       -0.0034
     28 C         139.2362  139.8718  168.2514 C.ar    1  UNL1       -0.0057
     29 C         140.4958  140.0083  167.4484 C.ar    1  UNL1        0.0261
     30 C         140.5722  139.4255  166.0684 C.ar    1  UNL1        0.1393
     31 F         141.8318  139.5620  165.2653 F       1  UNL1       -0.2044
     32 C         139.1598  140.4546  169.6315 C.3     1  UNL1        0.1278
     33 S         140.4181  140.8134  170.3649 S.3     1  UNL1        0.0697
     34 C         141.6765  141.1722  171.0982 C.3     1  UNL1        0.1171
     35 N         140.5210  139.4071  170.8765 N.2     1  UNL1       -0.2504
     36 O         140.3153  142.2197  169.8532 O.2     1  UNL1       -0.2460
     37 H         139.7549  138.7947  170.7905 H       1  UNL1        0.1971
@<TRIPOS>BOND
     1     8     7    1
     2     8     9    1
     3     9    10    1
     4    10    14    1
     5    14    15   ar
     6    15    16   ar
     7    16    17   ar
     8    17    19    1
     9    19    20    1
    10    19    21    1
    11    19    22    1
    12    17    18   ar
    13    10    11    1
    14    11    12    1
    15    12    13    1
    16    13     1    1
    17     1     2   ar
    18     2     3   ar
    19     3     4   ar
    20     4    23    1
    21    23    24    1
    22    24    25    1
    23    25    26   ar
    24    26    27   ar
    25    27    28   ar
    26    28    32    1
    27    32    33    1
    28    33    34    1
    29    33    35    2
    30    33    36    2
    31    28    29   ar
    32    29    30   ar
    33    30    31    1
    34     4     5   ar
    35     5     6   ar
    36    13     8    1
    37     6     1   ar
    38    18    14   ar
    39    30    25   ar
    40    35    37    1
@<TRIPOS>MOLECULE
*****
 37 40 0 0 0
SMALL
GASTEIGER

@<TRIPOS>ATOM
      1 C         141.7389  143.6219  159.6597 C.ar    1  UNL1        0.2204
      2 N         140.6013  142.6715  159.8895 N.ar    1  UNL1       -0.2089
      3 C         139.4982  143.0373  160.8378 C.ar    1  UNL1        0.1402
      4 C         139.5326  144.3536  161.5563 C.ar    1  UNL1        0.1773
      5 C         140.6701  145.3040  161.3266 C.ar    1  UNL1        0.1402
      6 N         141.7733  144.9381  160.3782 N.ar    1  UNL1       -0.2089
      7 C         144.3521  142.5998  160.7211 C.3     1  UNL1        0.0233
      8 C         144.1486  142.7449  159.2421 C.3     1  UNL1        0.0955
      9 C         145.2516  142.3790  158.2938 C.3     1  UNL1        0.1149
     10 N         145.0481  142.5242  156.8148 N.pl3   1  UNL1       -0.2590
     11 C         143.7415  143.0352  156.2840 C.3     1  UNL1        0.1166
     12 C         142.6385  143.4011  157.2324 C.3     1  UNL1        0.1151
     13 N         142.8420  143.2559  158.7114 N.pl3   1  UNL1       -0.2764
     14 C         146.1513  142.1583  155.8664 C.ar    1  UNL1        0.3120
     15 N         145.9801  141.7163  154.4433 N.ar    1  UNL1       -0.0922
     16 N         147.3423  141.4550  153.8721 N.ar    1  UNL1       -0.1018
     17 C         148.3553  141.7355  154.9423 C.ar    1  UNL1        0.3233
     18 O         147.6192  142.1701  156.1748 O.2     1  UNL1       -0.4012
     19 C         149.8432  141.6043  154.8041 C.3     1  UNL1        0.4711
     20 F         151.3310  141.4732  154.6660 F       1  UNL1       -0.1619
     21 F         150.0125  142.0163  156.2364 F       1  UNL1       -0.1619
     22 F         149.6738  141.1923  153.3718 F       1  UNL1       -0.1619
     23 O         138.4295  144.7195  162.5046 O.3     1  UNL1       -0.4674
     24 C         137.6660  143.6433  163.2180 C.3     1  UNL1        0.2344
     25 C         138.3597  142.7715  164.2223 C.ar    1  UNL1        0.0486
     26 C         139.3102  143.3774  165.2119 C.ar    1  UNL1        0.0013
     27 C         140.0039  142.5055  166.2163 C.ar    1  UNL1       -0.0034
     28 C         139.7471  141.0278  166.2309 C.ar    1  UNL1       -0.0057
     29 C         138.7966  140.4218  165.2413 C.ar    1  UNL1        0.0261
     30 C         138.1029  141.2936  164.2370 C.ar    1  UNL1        0.1393
     31 F         137.1524  140.6877  163.2473 F       1  UNL1       -0.2044
     32 C         140.4408  140.1560  167.2352 C.3     1  UNL1        0.1278
     33 S         140.1907  140.3549  168.7008 S.3     1  UNL1        0.0697
     34 C         139.9407  140.5537  170.1664 C.3     1  UNL1        0.1171
     35 N         138.8733  139.6494  168.5717 N.2     1  UNL1       -0.2504
     36 O         141.5082  141.0603  168.8299 O.2     1  UNL1       -0.2460
     37 H         138.4944  139.4734  167.6803 H       1  UNL1        0.1971
@<TRIPOS>BOND
     1     8     7    1
     2     8     9    1
     3     9    10    1
     4    10    14    1
     5    14    15   ar
     6    15    16   ar
     7    16    17   ar
     8    17    19    1
     9    19    20    1
    10    19    21    1
    11    19    22    1
    12    17    18   ar
    13    10    11    1
    14    11    12    1
    15    12    13    1
    16    13     1    1
    17     1     2   ar
    18     2     3   ar
    19     3     4   ar
    20     4    23    1
    21    23    24    1
    22    24    25    1
    23    25    26   ar
    24    26    27   ar
    25    27    28   ar
    26    28    32    1
    27    32    33    1
    28    33    34    1
    29    33    35    2
    30    33    36    2
    31    28    29   ar
    32    29    30   ar
    33    30    31    1
    34     4     5   ar
    35     5     6   ar
    36    13     8    1
    37     6     1   ar
    38    18    14   ar
    39    30    25   ar
    40    35    37    1
@<TRIPOS>MOLECULE
*****
 37 40 0 0 0
SMALL
GASTEIGER

@<TRIPOS>ATOM
      1 C         139.5240  140.5202  160.4027 C.ar    1  UNL1        0.2204
      2 N         139.3583  141.9580  160.0087 N.ar    1  UNL1       -0.2089
      3 C         138.6105  142.8999  160.9050 C.ar    1  UNL1        0.1402
      4 C         138.0283  142.4040  162.1955 C.ar    1  UNL1        0.1773
      5 C         138.1941  140.9662  162.5895 C.ar    1  UNL1        0.1402
      6 N         138.9419  140.0243  161.6931 N.ar    1  UNL1       -0.2089
      7 C         142.4605  140.0676  160.8179 C.3     1  UNL1        0.0233
      8 C         141.7401  139.3520  159.7138 C.3     1  UNL1        0.0955
      9 C         142.4879  138.4101  158.8174 C.3     1  UNL1        0.1149
     10 N         141.7674  137.6946  157.7133 N.pl3   1  UNL1       -0.2590
     11 C         140.2993  137.9209  157.5057 C.3     1  UNL1        0.1166
     12 C         139.5515  138.8628  158.4021 C.3     1  UNL1        0.1151
     13 N         140.2719  139.5783  159.5062 N.pl3   1  UNL1       -0.2764
     14 C         142.5153  136.7526  156.8169 C.ar    1  UNL1        0.3120
     15 N         143.8353  137.0236  156.1580 N.ar    1  UNL1       -0.0922
     16 N         144.2102  135.8129  155.3559 N.ar    1  UNL1       -0.1018
     17 C         143.1219  134.7935  155.5189 C.ar    1  UNL1        0.3233
     18 O         142.0744  135.3744  156.4219 O.2     1  UNL1       -0.4012
     19 C         143.0872  133.4324  154.8896 C.3     1  UNL1        0.4711
     20 F         143.0525  132.0713  154.2602 F       1  UNL1       -0.1619
     21 F         142.5963  134.0376  153.6078 F       1  UNL1       -0.1619
     22 F         143.5780  132.8272  156.1713 F       1  UNL1       -0.1619
     23 O         137.2805  143.3459  163.0919 O.3     1  UNL1       -0.4674
     24 C         138.0312  144.2398  164.0340 C.3     1  UNL1        0.2344
     25 C         139.5290  144.1818  164.0896 C.ar    1  UNL1        0.0486
     26 C         140.3472  145.1765  163.3206 C.ar    1  UNL1        0.0013
     27 C         141.8451  145.1185  163.3762 C.ar    1  UNL1       -0.0034
     28 C         142.5248  144.0659  164.2009 C.ar    1  UNL1       -0.0057
     29 C         141.7066  143.0713  164.9699 C.ar    1  UNL1        0.0261
     30 C         140.2088  143.1293  164.9143 C.ar    1  UNL1        0.1393
     31 F         139.3907  142.1347  165.6834 F       1  UNL1       -0.2044
     32 C         144.0226  144.0080  164.2565 C.3     1  UNL1        0.1278
     33 S         144.7555  142.8885  163.5786 S.3     1  UNL1        0.0697
     34 C         145.4885  141.7691  162.9006 C.3     1  UNL1        0.1171
     35 N         144.7430  143.6595  162.2919 N.2     1  UNL1       -0.2504
     36 O         144.7681  142.1176  164.8652 O.2     1  UNL1       -0.2460
     37 H         144.1670  144.4525  162.1988 H       1  UNL1        0.1971
@<TRIPOS>BOND
     1     8     7    1
     2     8     9    1
     3     9    10    1
     4    10    14    1
     5    14    15   ar
     6    15    16   ar
     7    16    17   ar
     8    17    19    1
     9    19    20    1
    10    19    21    1
    11    19    22    1
    12    17    18   ar
    13    10    11    1
    14    11    12    1
    15    12    13    1
    16    13     1    1
    17     1     2   ar
    18     2     3   ar
    19     3     4   ar
    20     4    23    1
    21    23    24    1
    22    24    25    1
    23    25    26   ar
    24    26    27   ar
    25    27    28   ar
    26    28    32    1
    27    32    33    1
    28    33    34    1
    29    33    35    2
    30    33    36    2
    31    28    29   ar
    32    29    30   ar
    33    30    31    1
    34     4     5   ar
    35     5     6   ar
    36    13     8    1
    37     6     1   ar
    38    18    14   ar
    39    30    25   ar
    40    35    37    1
@<TRIPOS>MOLECULE
*****
 37 40 0 0 0
SMALL
GASTEIGER

@<TRIPOS>ATOM
      1 C         139.8068  140.7079  160.1165 C.ar    1  UNL1        0.2204
      2 N         138.8648  140.3034  161.2115 N.ar    1  UNL1       -0.2089
      3 C         138.1144  141.3503  161.9801 C.ar    1  UNL1        0.1402
      4 C         138.3060  142.8019  161.6537 C.ar    1  UNL1        0.1773
      5 C         139.2481  143.2063  160.5588 C.ar    1  UNL1        0.1402
      6 N         139.9985  142.1593  159.7902 N.ar    1  UNL1       -0.2089
      7 C         142.5463  139.8690  161.0062 C.3     1  UNL1        0.0233
      8 C         141.9269  139.2414  159.7928 C.3     1  UNL1        0.0955
      9 C         142.6772  138.1944  159.0242 C.3     1  UNL1        0.1149
     10 N         142.0578  137.5668  157.8108 N.pl3   1  UNL1       -0.2590
     11 C         140.6881  137.9862  157.3659 C.3     1  UNL1        0.1166
     12 C         139.9378  139.0332  158.1345 C.3     1  UNL1        0.1151
     13 N         140.5572  139.6608  159.3479 N.pl3   1  UNL1       -0.2764
     14 C         142.8082  136.5198  157.0422 C.ar    1  UNL1        0.3120
     15 N         143.4635  136.7071  155.7059 N.ar    1  UNL1       -0.0922
     16 N         144.0953  135.4047  155.3128 N.ar    1  UNL1       -0.1018
     17 C         143.8306  134.4124  156.4062 C.ar    1  UNL1        0.3233
     18 O         143.0351  135.1016  157.4749 O.2     1  UNL1       -0.4012
     19 C         144.2820  132.9821  156.4270 C.3     1  UNL1        0.4711
     20 F         144.7334  131.5518  156.4479 F       1  UNL1       -0.1619
     21 F         144.8705  133.1877  157.7913 F       1  UNL1       -0.1619
     22 F         143.6935  132.7764  155.0627 F       1  UNL1       -0.1619
     23 O         137.5557  143.8488  162.4223 O.3     1  UNL1       -0.4674
     24 C         138.2109  144.5440  163.5788 C.3     1  UNL1        0.2344
     25 C         139.5234  144.0461  164.1072 C.ar    1  UNL1        0.0486
     26 C         139.5524  142.9545  165.1357 C.ar    1  UNL1        0.0013
     27 C         140.8650  142.4566  165.6642 C.ar    1  UNL1       -0.0034
     28 C         142.1485  143.0502  165.1642 C.ar    1  UNL1       -0.0057
     29 C         142.1196  144.1417  164.1357 C.ar    1  UNL1        0.0261
     30 C         140.8071  144.6397  163.6072 C.ar    1  UNL1        0.1393
     31 F         140.7781  145.7312  162.5788 F       1  UNL1       -0.2044
     32 C         143.4611  142.5523  165.6926 C.3     1  UNL1        0.1278
     33 S         144.5531  142.1619  164.7413 S.3     1  UNL1        0.0697
     34 C         145.6452  141.7715  163.7900 C.3     1  UNL1        0.1171
     35 N         143.7939  140.9198  164.3795 N.2     1  UNL1       -0.2504
     36 O         145.3123  143.4039  165.1031 O.2     1  UNL1       -0.2460
     37 H         143.0274  140.6343  164.9274 H       1  UNL1        0.1971
@<TRIPOS>BOND
     1     8     7    1
     2     8     9    1
     3     9    10    1
     4    10    14    1
     5    14    15   ar
     6    15    16   ar
     7    16    17   ar
     8    17    19    1
     9    19    20    1
    10    19    21    1
    11    19    22    1
    12    17    18   ar
    13    10    11    1
    14    11    12    1
    15    12    13    1
    16    13     1    1
    17     1     2   ar
    18     2     3   ar
    19     3     4   ar
    20     4    23    1
    21    23    24    1
    22    24    25    1
    23    25    26   ar
    24    26    27   ar
    25    27    28   ar
    26    28    32    1
    27    32    33    1
    28    33    34    1
    29    33    35    2
    30    33    36    2
    31    28    29   ar
    32    29    30   ar
    33    30    31    1
    34     4     5   ar
    35     5     6   ar
    36    13     8    1
    37     6     1   ar
    38    18    14   ar
    39    30    25   ar
    40    35    37    1
@<TRIPOS>MOLECULE
*****
 37 40 0 0 0
SMALL
GASTEIGER

@<TRIPOS>ATOM
      1 C         141.0702  144.8702  159.8980 C.ar    1  UNL1        0.2204
      2 N         139.8269  145.5289  159.3780 N.ar    1  UNL1       -0.2089
      3 C         139.7986  146.0836  157.9847 C.ar    1  UNL1        0.1402
      4 C         141.0137  145.9797  157.1112 C.ar    1  UNL1        0.1773
      5 C         142.2570  145.3210  157.6312 C.ar    1  UNL1        0.1402
      6 N         142.2852  144.7662  159.0246 N.ar    1  UNL1       -0.2089
      7 C         140.9308  141.9055  160.3354 C.3     1  UNL1        0.0233
      8 C         141.0287  142.8331  161.5101 C.3     1  UNL1        0.0955
      9 C         141.0569  142.2785  162.9034 C.3     1  UNL1        0.1149
     10 N         141.1548  143.2061  164.0781 N.pl3   1  UNL1       -0.2590
     11 C         141.2245  144.6884  163.8595 C.3     1  UNL1        0.1166
     12 C         141.1963  145.2431  162.4661 C.3     1  UNL1        0.1151
     13 N         141.0984  144.3154  161.2914 N.pl3   1  UNL1       -0.2764
     14 C         141.1831  142.6513  165.4715 C.ar    1  UNL1        0.3120
     15 N         140.0004  142.1460  166.2435 N.ar    1  UNL1       -0.0922
     16 N         140.4853  141.6869  167.5866 N.ar    1  UNL1       -0.1018
     17 C         141.9678  141.9085  167.6448 C.ar    1  UNL1        0.3233
     18 O         142.3990  142.5046  166.3376 O.2     1  UNL1       -0.4012
     19 C         142.8620  141.5900  168.8063 C.3     1  UNL1        0.4711
     20 F         143.7561  141.2715  169.9677 F       1  UNL1       -0.1619
     21 F         142.7800  143.0172  169.2607 F       1  UNL1       -0.1619
     22 F         142.9439  140.1629  168.3518 F       1  UNL1       -0.1619
     23 O         140.9854  146.5344  155.7179 O.3     1  UNL1       -0.4674
     24 C         139.6914  147.0083  155.1254 C.3     1  UNL1        0.2344
     25 C         139.5679  148.4159  154.6223 C.ar    1  UNL1        0.0486
     26 C         140.1048  148.7787  153.2695 C.ar    1  UNL1        0.0013
     27 C         139.9813  150.1865  152.7664 C.ar    1  UNL1       -0.0034
     28 C         139.3208  151.2313  153.6161 C.ar    1  UNL1       -0.0057
     29 C         138.7838  150.8685  154.9688 C.ar    1  UNL1        0.0261
     30 C         138.9073  149.4609  155.4720 C.ar    1  UNL1        0.1393
     31 F         138.3703  149.0981  156.8247 F       1  UNL1       -0.2044
     32 C         139.1972  152.6390  153.1129 C.3     1  UNL1        0.1278
     33 S         138.4671  153.6653  153.9276 S.3     1  UNL1        0.0697
     34 C         137.7369  154.6916  154.7422 C.3     1  UNL1        0.1171
     35 N         137.2299  153.4324  153.1120 N.2     1  UNL1       -0.2504
     36 O         139.7043  153.8981  154.7431 O.2     1  UNL1       -0.2460
     37 H         137.2831  152.9227  152.2715 H       1  UNL1        0.1971
@<TRIPOS>BOND
     1     8     7    1
     2     8     9    1
     3     9    10    1
     4    10    14    1
     5    14    15   ar
     6    15    16   ar
     7    16    17   ar
     8    17    19    1
     9    19    20    1
    10    19    21    1
    11    19    22    1
    12    17    18   ar
    13    10    11    1
    14    11    12    1
    15    12    13    1
    16    13     1    1
    17     1     2   ar
    18     2     3   ar
    19     3     4   ar
    20     4    23    1
    21    23    24    1
    22    24    25    1
    23    25    26   ar
    24    26    27   ar
    25    27    28   ar
    26    28    32    1
    27    32    33    1
    28    33    34    1
    29    33    35    2
    30    33    36    2
    31    28    29   ar
    32    29    30   ar
    33    30    31    1
    34     4     5   ar
    35     5     6   ar
    36    13     8    1
    37     6     1   ar
    38    18    14   ar
    39    30    25   ar
    40    35    37    1
@<TRIPOS>MOLECULE
*****
 37 40 0 0 0
SMALL
GASTEIGER

@<TRIPOS>ATOM
      1 C         141.1114  141.6052  159.1209 C.ar    1  UNL1        0.2204
      2 N         139.6594  141.8108  159.4358 N.ar    1  UNL1       -0.2089
      3 C         139.1792  143.1461  159.9219 C.ar    1  UNL1        0.1402
      4 C         140.1510  144.2759  160.0931 C.ar    1  UNL1        0.1773
      5 C         141.6031  144.0702  159.7782 C.ar    1  UNL1        0.1402
      6 N         142.0833  142.7348  159.2921 N.ar    1  UNL1       -0.2089
      7 C         142.1296  139.5733  161.0793 C.3     1  UNL1        0.0233
      8 C         142.1007  139.2539  159.6140 C.3     1  UNL1        0.0955
      9 C         142.5808  137.9186  159.1279 C.3     1  UNL1        0.1149
     10 N         142.5519  137.5991  157.6626 N.pl3   1  UNL1       -0.2590
     11 C         142.0429  138.6150  156.6834 C.3     1  UNL1        0.1166
     12 C         141.5627  139.9503  157.1695 C.3     1  UNL1        0.1151
     13 N         141.5916  140.2698  158.6348 N.pl3   1  UNL1       -0.2764
     14 C         143.0321  136.2637  157.1765 C.ar    1  UNL1        0.3120
     15 N         143.3705  135.9113  155.7583 N.ar    1  UNL1       -0.0922
     16 N         143.8057  134.4761  155.7286 N.ar    1  UNL1       -0.1018
     17 C         143.7363  133.9416  157.1285 C.ar    1  UNL1        0.3233
     18 O         143.2581  135.0464  158.0233 O.2     1  UNL1       -0.4012
     19 C         144.0839  132.5471  157.5580 C.3     1  UNL1        0.4711
     20 F         144.4315  131.1526  157.9876 F       1  UNL1       -0.1619
     21 F         145.2444  133.0790  158.3456 F       1  UNL1       -0.1619
     22 F         142.9234  132.0152  156.7704 F       1  UNL1       -0.1619
     23 O         139.6708  145.6112  160.5792 O.3     1  UNL1       -0.4674
     24 C         139.9161  146.0246  162.0001 C.3     1  UNL1        0.2344
     25 C         139.9433  144.9919  163.0876 C.ar    1  UNL1        0.0486
     26 C         141.2438  144.6188  163.7352 C.ar    1  UNL1        0.0013
     27 C         141.2709  143.5860  164.8228 C.ar    1  UNL1       -0.0034
     28 C         139.9976  142.9265  165.2628 C.ar    1  UNL1       -0.0057
     29 C         138.6971  143.2997  164.6152 C.ar    1  UNL1        0.0261
     30 C         138.6699  144.3324  163.5277 C.ar    1  UNL1        0.1393
     31 F         137.3693  144.7055  162.8801 F       1  UNL1       -0.2044
     32 C         140.0248  141.8939  166.3503 C.3     1  UNL1        0.1278
     33 S         140.9360  140.7078  166.2358 S.3     1  UNL1        0.0697
     34 C         141.8471  139.5218  166.1213 C.3     1  UNL1        0.1171
     35 N         141.7060  141.1840  167.4317 N.2     1  UNL1       -0.2504
     36 O         140.1659  140.2317  165.0399 O.2     1  UNL1       -0.2460
     37 H         141.5690  142.0968  167.7740 H       1  UNL1        0.1971
@<TRIPOS>BOND
     1     8     7    1
     2     8     9    1
     3     9    10    1
     4    10    14    1
     5    14    15   ar
     6    15    16   ar
     7    16    17   ar
     8    17    19    1
     9    19    20    1
    10    19    21    1
    11    19    22    1
    12    17    18   ar
    13    10    11    1
    14    11    12    1
    15    12    13    1
    16    13     1    1
    17     1     2   ar
    18     2     3   ar
    19     3     4   ar
    20     4    23    1
    21    23    24    1
    22    24    25    1
    23    25    26   ar
    24    26    27   ar
    25    27    28   ar
    26    28    32    1
    27    32    33    1
    28    33    34    1
    29    33    35    2
    30    33    36    2
    31    28    29   ar
    32    29    30   ar
    33    30    31    1
    34     4     5   ar
    35     5     6   ar
    36    13     8    1
    37     6     1   ar
    38    18    14   ar
    39    30    25   ar
    40    35    37    1
