@<TRIPOS>MOLECULE
*****
 35 38 0 0 0
SMALL
GASTEIGER

@<TRIPOS>ATOM
      1 C         142.5676  138.5512  158.4936 C.ar    1  UNL1        0.1535
      2 C         141.2654  138.2866  159.1895 C.ar    1  UNL1        0.0377
      3 C         141.1627  138.4519  160.6768 C.ar    1  UNL1        0.0239
      4 C         142.3622  138.8817  161.4682 C.ar    1  UNL1        0.1059
      5 N         143.6644  139.1464  160.7724 N.ar    1  UNL1       -0.1467
      6 N         143.7671  138.9811  159.2851 N.ar    1  UNL1       -0.1329
      7 C         142.2594  139.0470  162.9556 C.ar    1  UNL1        0.0532
      8 C         140.9134  139.1774  163.6045 C.ar    1  UNL1        0.0061
      9 C         140.8106  139.3427  165.0919 C.ar    1  UNL1        0.0194
     10 C         142.0540  139.3775  165.9303 C.ar    1  UNL1        0.0859
     11 C         143.4001  139.2470  165.2813 C.ar    1  UNL1        0.0558
     12 C         143.5027  139.0818  163.7940 C.ar    1  UNL1        0.1366
     13 O         144.8488  138.9514  163.1450 O.3     1  UNL1       -0.5054
     14 H         145.6255  138.9731  163.6687 H       1  UNL1        0.2922
     15 N         141.9513  139.5427  167.4176 N.ar    1  UNL1       -0.2269
     16 C         140.7208  139.9406  168.1776 C.ar    1  UNL1        0.1033
     17 C         141.0700  139.9829  169.6358 C.ar    1  UNL1        0.0563
     18 C         142.5164  139.6111  169.7769 C.ar    1  UNL1        0.1471
     19 N         143.2835  139.5262  171.0632 N.pl3   1  UNL1       -0.3412
     20 N         143.0610  139.3390  168.4060 N.ar    1  UNL1       -0.1504
     21 H         142.8358  139.7245  171.9173 H       1  UNL1        0.1438
     22 H         144.2346  139.2721  171.0533 H       1  UNL1        0.1438
     23 C         142.7788  139.5936  156.1232 C.3     1  UNL1        0.1135
     24 N         142.6703  138.3860  157.0063 N.pl3   1  UNL1       -0.2916
     25 C         142.6646  137.0131  156.4020 C.3     1  UNL1        0.0768
     26 C         143.0732  135.8289  157.2270 C.3     1  UNL1        0.0342
     27 C         143.0674  134.4560  156.6228 C.3     1  UNL1        0.0435
     28 C         143.2246  132.9693  156.5001 C.3     1  UNL1        0.0158
     29 C         143.5364  134.1284  158.0094 C.3     1  UNL1        0.0158
     30 N         142.6531  134.2673  155.1936 N.3     1  UNL1       -0.3015
     31 C         142.2444  135.4515  154.3685 C.3     1  UNL1        0.0435
     32 C         141.7775  136.2560  153.1918 C.3     1  UNL1        0.0158
     33 C         142.0765  134.3580  153.3556 C.3     1  UNL1        0.0158
     34 C         142.2502  136.8244  154.9728 C.3     1  UNL1        0.0342
     35 H         141.8609  133.6248  155.1990 H       1  UNL1        0.1231
@<TRIPOS>BOND
     1    23    24    1
     2    24     1    1
     3     1     2   ar
     4     2     3   ar
     5     3     4   ar
     6     4     7    1
     7     7     8   ar
     8     8     9   ar
     9     9    10   ar
    10    10    15    1
    11    15    16   ar
    12    16    17   ar
    13    17    18   ar
    14    18    19    1
    15    18    20   ar
    16    10    11   ar
    17    11    12   ar
    18    12    13    1
    19     4     5   ar
    20     5     6   ar
    21    24    25    1
    22    25    26    1
    23    26    27    1
    24    27    28    1
    25    27    29    1
    26    27    30    1
    27    30    31    1
    28    31    32    1
    29    31    33    1
    30    31    34    1
    31     6     1   ar
    32    34    25    1
    33    12     7   ar
    34    20    15   ar
    35    19    21    1
    36    19    22    1
    37    13    14    1
    38    30    35    1
@<TRIPOS>MOLECULE
*****
 35 38 0 0 0
SMALL
GASTEIGER

@<TRIPOS>ATOM
      1 C         142.5642  138.5103  158.5178 C.ar    1  UNL1        0.1535
      2 C         141.2445  138.3298  159.2076 C.ar    1  UNL1        0.0377
      3 C         141.1455  138.5032  160.6942 C.ar    1  UNL1        0.0239
      4 C         142.3661  138.8572  161.4910 C.ar    1  UNL1        0.1059
      5 N         143.6857  139.0377  160.8012 N.ar    1  UNL1       -0.1467
      6 N         143.7848  138.8642  159.3146 N.ar    1  UNL1       -0.1329
      7 C         142.2670  139.0307  162.9777 C.ar    1  UNL1        0.0532
      8 C         140.9212  139.1052  163.6360 C.ar    1  UNL1        0.0061
      9 C         140.8221  139.2787  165.1227 C.ar    1  UNL1        0.0194
     10 C         142.0688  139.3776  165.9510 C.ar    1  UNL1        0.0859
     11 C         143.4146  139.3030  165.2926 C.ar    1  UNL1        0.0558
     12 C         143.5136  139.1296  163.8060 C.ar    1  UNL1        0.1366
     13 O         144.8594  139.0550  163.1476 O.3     1  UNL1       -0.5054
     14 H         145.6381  139.1168  163.6649 H       1  UNL1        0.2922
     15 N         141.9697  139.5511  167.4376 N.ar    1  UNL1       -0.2269
     16 C         140.7513  139.9891  168.1949 C.ar    1  UNL1        0.1033
     17 C         141.1002  140.0257  169.6533 C.ar    1  UNL1        0.0563
     18 C         142.5344  139.6103  169.7973 C.ar    1  UNL1        0.1471
     19 N         143.2973  139.5064  171.0847 N.pl3   1  UNL1       -0.3412
     20 N         143.0718  139.3170  168.4279 N.ar    1  UNL1       -0.1504
     21 H         142.8550  139.7213  171.9376 H       1  UNL1        0.1438
     22 H         144.2402  139.2234  171.0767 H       1  UNL1        0.1438
     23 C         142.9140  139.5262  156.1523 C.3     1  UNL1        0.1135
     24 N         142.6633  138.3368  157.0311 N.pl3   1  UNL1       -0.2916
     25 C         142.5116  136.9739  156.4233 C.3     1  UNL1        0.0768
     26 C         141.8588  136.8194  155.0817 C.3     1  UNL1        0.0342
     27 C         141.7071  135.4564  154.4739 C.3     1  UNL1        0.0435
     28 C         141.3367  134.3838  153.4930 C.3     1  UNL1        0.0158
     29 C         141.0773  136.2924  153.3995 C.3     1  UNL1        0.0158
     30 N         142.2083  134.2480  155.2077 N.3     1  UNL1       -0.3015
     31 C         142.8612  134.4025  156.5494 C.3     1  UNL1        0.0435
     32 C         143.5437  134.0399  157.8349 C.3     1  UNL1        0.0158
     33 C         142.9465  132.9137  156.3880 C.3     1  UNL1        0.0158
     34 C         143.0128  135.7654  157.1572 C.3     1  UNL1        0.0342
     35 H         142.8901  133.7956  154.5988 H       1  UNL1        0.1231
@<TRIPOS>BOND
     1    23    24    1
     2    24     1    1
     3     1     2   ar
     4     2     3   ar
     5     3     4   ar
     6     4     7    1
     7     7     8   ar
     8     8     9   ar
     9     9    10   ar
    10    10    15    1
    11    15    16   ar
    12    16    17   ar
    13    17    18   ar
    14    18    19    1
    15    18    20   ar
    16    10    11   ar
    17    11    12   ar
    18    12    13    1
    19     4     5   ar
    20     5     6   ar
    21    24    25    1
    22    25    26    1
    23    26    27    1
    24    27    28    1
    25    27    29    1
    26    27    30    1
    27    30    31    1
    28    31    32    1
    29    31    33    1
    30    31    34    1
    31     6     1   ar
    32    34    25    1
    33    12     7   ar
    34    20    15   ar
    35    19    21    1
    36    19    22    1
    37    13    14    1
    38    30    35    1
@<TRIPOS>MOLECULE
*****
 35 38 0 0 0
SMALL
GASTEIGER

@<TRIPOS>ATOM
      1 C         142.0875  140.8222  164.4966 C.ar    1  UNL1        0.1535
      2 C         140.7358  140.6565  163.8678 C.ar    1  UNL1        0.0377
      3 C         140.3703  141.4574  162.6534 C.ar    1  UNL1        0.0239
      4 C         141.3565  142.4241  162.0677 C.ar    1  UNL1        0.1059
      5 N         142.7082  142.5898  162.6965 N.ar    1  UNL1       -0.1467
      6 N         143.0737  141.7889  163.9109 N.ar    1  UNL1       -0.1329
      7 C         140.9909  143.2250  160.8532 C.ar    1  UNL1        0.0532
      8 C         140.1156  142.6238  159.7939 C.ar    1  UNL1        0.0061
      9 C         139.7500  143.4248  158.5794 C.ar    1  UNL1        0.0194
     10 C         140.2599  144.8269  158.4243 C.ar    1  UNL1        0.0859
     11 C         141.1353  145.4281  159.4838 C.ar    1  UNL1        0.0558
     12 C         141.5008  144.6272  160.6982 C.ar    1  UNL1        0.1366
     13 O         142.3762  145.2284  161.7576 O.3     1  UNL1       -0.5054
     14 H         142.6947  146.1042  161.6608 H       1  UNL1        0.2922
     15 N         139.8943  145.6278  157.2099 N.ar    1  UNL1       -0.2269
     16 C         140.0096  145.1720  155.7855 C.ar    1  UNL1        0.1033
     17 C         139.5359  146.2877  154.9019 C.ar    1  UNL1        0.0563
     18 C         139.1278  147.4331  155.7803 C.ar    1  UNL1        0.1471
     19 N         138.5922  148.7544  155.3141 N.pl3   1  UNL1       -0.3412
     20 N         139.3494  147.0253  157.2067 N.ar    1  UNL1       -0.1504
     21 H         138.4820  148.9289  154.3514 H       1  UNL1        0.1438
     22 H         138.3510  149.4472  155.9707 H       1  UNL1        0.1438
     23 C         143.3688  138.8402  165.5829 C.3     1  UNL1        0.1135
     24 N         142.4531  140.0213  165.7111 N.pl3   1  UNL1       -0.2916
     25 C         141.9028  140.4014  167.0537 C.3     1  UNL1        0.0768
     26 C         140.5082  140.0007  167.4336 C.3     1  UNL1        0.0342
     27 C         139.9580  140.3808  168.7762 C.3     1  UNL1        0.0435
     28 C         138.9988  140.5047  169.9228 C.3     1  UNL1        0.0158
     29 C         138.7804  139.6429  168.2116 C.3     1  UNL1        0.0158
     30 N         140.8024  141.1618  169.7390 N.3     1  UNL1       -0.3015
     31 C         142.1971  141.5626  169.3592 C.3     1  UNL1        0.0435
     32 C         143.5658  142.1685  169.4575 C.3     1  UNL1        0.0158
     33 C         142.1222  142.1532  170.7360 C.3     1  UNL1        0.0158
     34 C         142.7473  141.1824  168.0166 C.3     1  UNL1        0.0342
     35 H         140.8781  140.6000  170.5870 H       1  UNL1        0.1231
@<TRIPOS>BOND
     1    23    24    1
     2    24     1    1
     3     1     2   ar
     4     2     3   ar
     5     3     4   ar
     6     4     7    1
     7     7     8   ar
     8     8     9   ar
     9     9    10   ar
    10    10    15    1
    11    15    16   ar
    12    16    17   ar
    13    17    18   ar
    14    18    19    1
    15    18    20   ar
    16    10    11   ar
    17    11    12   ar
    18    12    13    1
    19     4     5   ar
    20     5     6   ar
    21    24    25    1
    22    25    26    1
    23    26    27    1
    24    27    28    1
    25    27    29    1
    26    27    30    1
    27    30    31    1
    28    31    32    1
    29    31    33    1
    30    31    34    1
    31     6     1   ar
    32    34    25    1
    33    12     7   ar
    34    20    15   ar
    35    19    21    1
    36    19    22    1
    37    13    14    1
    38    30    35    1
@<TRIPOS>MOLECULE
*****
 35 38 0 0 0
SMALL
GASTEIGER

@<TRIPOS>ATOM
      1 C         143.2985  139.7193  159.0496 C.ar    1  UNL1        0.1535
      2 C         142.5726  140.9282  159.5609 C.ar    1  UNL1        0.0377
      3 C         142.5194  141.2035  161.0345 C.ar    1  UNL1        0.0239
      4 C         143.1922  140.2699  161.9966 C.ar    1  UNL1        0.1059
      5 N         143.9181  139.0610  161.4852 N.ar    1  UNL1       -0.1467
      6 N         143.9713  138.7857  160.0117 N.ar    1  UNL1       -0.1329
      7 C         143.1390  140.5452  163.4702 C.ar    1  UNL1        0.0532
      8 C         143.5278  141.8954  163.9955 C.ar    1  UNL1        0.0061
      9 C         143.4746  142.1707  165.4691 C.ar    1  UNL1        0.0194
     10 C         143.0326  141.0958  166.4174 C.ar    1  UNL1        0.0859
     11 C         142.6438  139.7456  165.8921 C.ar    1  UNL1        0.0558
     12 C         142.6970  139.4704  164.4186 C.ar    1  UNL1        0.1366
     13 O         142.3082  138.1202  163.8933 O.3     1  UNL1       -0.5054
     14 H         142.0321  137.4487  164.4856 H       1  UNL1        0.2922
     15 N         142.9794  141.3711  167.8909 N.ar    1  UNL1       -0.2269
     16 C         142.6132  140.3843  168.9596 C.ar    1  UNL1        0.1033
     17 C         142.6906  141.0848  170.2837 C.ar    1  UNL1        0.0563
     18 C         143.1046  142.5047  170.0333 C.ar    1  UNL1        0.1471
     19 N         143.3049  143.5620  171.0783 N.pl3   1  UNL1       -0.3412
     20 N         143.2831  142.6816  168.5545 N.ar    1  UNL1       -0.1504
     21 H         143.1625  143.3480  172.0287 H       1  UNL1        0.1438
     22 H         143.5788  144.4699  170.8138 H       1  UNL1        0.1438
     23 C         144.2653  140.2444  156.6959 C.3     1  UNL1        0.1135
     24 N         143.3517  139.4440  157.5760 N.pl3   1  UNL1       -0.2916
     25 C         142.4912  138.3682  156.9825 C.3     1  UNL1        0.0768
     26 C         143.0493  136.9919  156.7723 C.3     1  UNL1        0.0342
     27 C         142.1888  135.9162  156.1788 C.3     1  UNL1        0.0435
     28 C         141.7706  134.5742  155.6554 C.3     1  UNL1        0.0158
     29 C         143.4623  135.1496  156.3804 C.3     1  UNL1        0.0158
     30 N         140.7701  136.2167  155.7955 N.3     1  UNL1       -0.3015
     31 C         140.2119  137.5930  156.0057 C.3     1  UNL1        0.0435
     32 C         139.2373  138.7333  156.0102 C.3     1  UNL1        0.0158
     33 C         139.0130  136.9133  155.4138 C.3     1  UNL1        0.0158
     34 C         141.0724  138.6688  156.5991 C.3     1  UNL1        0.0342
     35 H         140.1798  135.5754  156.3254 H       1  UNL1        0.1231
@<TRIPOS>BOND
     1    23    24    1
     2    24     1    1
     3     1     2   ar
     4     2     3   ar
     5     3     4   ar
     6     4     7    1
     7     7     8   ar
     8     8     9   ar
     9     9    10   ar
    10    10    15    1
    11    15    16   ar
    12    16    17   ar
    13    17    18   ar
    14    18    19    1
    15    18    20   ar
    16    10    11   ar
    17    11    12   ar
    18    12    13    1
    19     4     5   ar
    20     5     6   ar
    21    24    25    1
    22    25    26    1
    23    26    27    1
    24    27    28    1
    25    27    29    1
    26    27    30    1
    27    30    31    1
    28    31    32    1
    29    31    33    1
    30    31    34    1
    31     6     1   ar
    32    34    25    1
    33    12     7   ar
    34    20    15   ar
    35    19    21    1
    36    19    22    1
    37    13    14    1
    38    30    35    1
@<TRIPOS>MOLECULE
*****
 35 38 0 0 0
SMALL
GASTEIGER

@<TRIPOS>ATOM
      1 C         143.2966  139.7449  159.1680 C.ar    1  UNL1        0.1535
      2 C         142.2971  140.7331  159.6918 C.ar    1  UNL1        0.0377
      3 C         142.2289  141.0233  161.1618 C.ar    1  UNL1        0.0239
      4 C         143.1601  140.3253  162.1081 C.ar    1  UNL1        0.1059
      5 N         144.1596  139.3370  161.5844 N.ar    1  UNL1       -0.1467
      6 N         144.2279  139.0468  160.1143 N.ar    1  UNL1       -0.1329
      7 C         143.0919  140.6155  163.5782 C.ar    1  UNL1        0.0532
      8 C         143.4155  141.9888  164.0874 C.ar    1  UNL1        0.0061
      9 C         143.3472  142.2791  165.5575 C.ar    1  UNL1        0.0194
     10 C         142.9553  141.1960  166.5184 C.ar    1  UNL1        0.0859
     11 C         142.6316  139.8226  166.0092 C.ar    1  UNL1        0.0558
     12 C         142.6999  139.5324  164.5391 C.ar    1  UNL1        0.1366
     13 O         142.3762  138.1591  164.0299 O.3     1  UNL1       -0.5054
     14 H         142.1314  137.4825  164.6301 H       1  UNL1        0.2922
     15 N         142.8870  141.4862  167.9884 N.ar    1  UNL1       -0.2269
     16 C         142.4596  140.5251  169.0579 C.ar    1  UNL1        0.1033
     17 C         142.5426  141.2333  170.3776 C.ar    1  UNL1        0.0563
     18 C         143.0212  142.6321  170.1237 C.ar    1  UNL1        0.1471
     19 N         143.2473  143.6891  171.1638 N.pl3   1  UNL1       -0.3412
     20 N         143.2341  142.7883  168.6471 N.ar    1  UNL1       -0.1504
     21 H         143.0786  143.4897  172.1130 H       1  UNL1        0.1438
     22 H         143.5644  144.5822  170.8972 H       1  UNL1        0.1438
     23 C         144.2982  140.2363  156.8216 C.3     1  UNL1        0.1135
     24 N         143.3649  139.4546  157.6979 N.pl3   1  UNL1       -0.2916
     25 C         142.4998  138.3827  157.1041 C.3     1  UNL1        0.0768
     26 C         141.0818  138.6887  156.7228 C.3     1  UNL1        0.0342
     27 C         140.2168  137.6167  156.1290 C.3     1  UNL1        0.0435
     28 C         139.0147  136.9420  155.5377 C.3     1  UNL1        0.0158
     29 C         139.2463  138.7605  156.1361 C.3     1  UNL1        0.0158
     30 N         140.7698  136.2387  155.9166 N.3     1  UNL1       -0.3015
     31 C         142.1879  135.9326  156.2979 C.3     1  UNL1        0.0435
     32 C         143.4588  135.1612  156.4971 C.3     1  UNL1        0.0158
     33 C         141.7642  134.5927  155.7733 C.3     1  UNL1        0.0158
     34 C         143.0529  137.0046  156.8917 C.3     1  UNL1        0.0342
     35 H         140.6825  136.0368  154.9206 H       1  UNL1        0.1231
@<TRIPOS>BOND
     1    23    24    1
     2    24     1    1
     3     1     2   ar
     4     2     3   ar
     5     3     4   ar
     6     4     7    1
     7     7     8   ar
     8     8     9   ar
     9     9    10   ar
    10    10    15    1
    11    15    16   ar
    12    16    17   ar
    13    17    18   ar
    14    18    19    1
    15    18    20   ar
    16    10    11   ar
    17    11    12   ar
    18    12    13    1
    19     4     5   ar
    20     5     6   ar
    21    24    25    1
    22    25    26    1
    23    26    27    1
    24    27    28    1
    25    27    29    1
    26    27    30    1
    27    30    31    1
    28    31    32    1
    29    31    33    1
    30    31    34    1
    31     6     1   ar
    32    34    25    1
    33    12     7   ar
    34    20    15   ar
    35    19    21    1
    36    19    22    1
    37    13    14    1
    38    30    35    1
@<TRIPOS>MOLECULE
*****
 35 38 0 0 0
SMALL
GASTEIGER

@<TRIPOS>ATOM
      1 C         139.9235  144.9739  157.4431 C.ar    1  UNL1        0.1535
      2 C         140.9976  145.6487  158.2435 C.ar    1  UNL1        0.0377
      3 C         141.1861  145.2998  159.6901 C.ar    1  UNL1        0.0239
      4 C         140.3005  144.2761  160.3363 C.ar    1  UNL1        0.1059
      5 N         139.2263  143.6012  159.5359 N.ar    1  UNL1       -0.1467
      6 N         139.0378  143.9501  158.0893 N.ar    1  UNL1       -0.1329
      7 C         140.4890  143.9272  161.7830 C.ar    1  UNL1        0.0532
      8 C         141.8719  143.7795  162.3448 C.ar    1  UNL1        0.0061
      9 C         142.0605  143.4306  163.7914 C.ar    1  UNL1        0.0194
     10 C         140.8661  143.2294  164.6762 C.ar    1  UNL1        0.0859
     11 C         139.4831  143.3772  164.1144 C.ar    1  UNL1        0.0558
     12 C         139.2946  143.7260  162.6678 C.ar    1  UNL1        0.1366
     13 O         137.9116  143.8738  162.1059 O.3     1  UNL1       -0.5054
     14 H         137.1655  143.7481  162.6586 H       1  UNL1        0.2922
     15 N         141.0545  142.8806  166.1228 N.ar    1  UNL1       -0.2269
     16 C         142.2147  142.1284  166.7045 C.ar    1  UNL1        0.1033
     17 C         141.9931  142.0055  168.1830 C.ar    1  UNL1        0.0563
     18 C         140.6960  142.6819  168.5150 C.ar    1  UNL1        0.1471
     19 N         140.0861  142.7971  169.8806 N.pl3   1  UNL1       -0.3412
     20 N         140.1160  143.2226  167.2418 N.ar    1  UNL1       -0.1504
     21 H         140.5454  142.4074  170.6593 H       1  UNL1        0.1438
     22 H         139.2265  143.2625  169.9981 H       1  UNL1        0.1438
     23 C         139.6474  144.2346  154.9677 C.3     1  UNL1        0.1135
     24 N         139.7349  145.3228  155.9964 N.pl3   1  UNL1       -0.2916
     25 C         139.6340  146.7598  155.5785 C.3     1  UNL1        0.0768
     26 C         138.9615  147.7563  156.4756 C.3     1  UNL1        0.0342
     27 C         138.8605  149.1933  156.0577 C.3     1  UNL1        0.0435
     28 C         138.5200  150.6535  156.1018 C.3     1  UNL1        0.0158
     29 C         138.1708  149.2598  157.3880 C.3     1  UNL1        0.0158
     30 N         139.4320  149.6339  154.7427 N.3     1  UNL1       -0.3015
     31 C         140.1045  148.6374  153.8455 C.3     1  UNL1        0.0435
     32 C         140.8293  148.0718  152.6603 C.3     1  UNL1        0.0158
     33 C         140.2552  149.8780  153.0160 C.3     1  UNL1        0.0158
     34 C         140.2055  147.2004  154.2634 C.3     1  UNL1        0.0342
     35 H         140.1213  150.3570  154.9486 H       1  UNL1        0.1231
@<TRIPOS>BOND
     1    23    24    1
     2    24     1    1
     3     1     2   ar
     4     2     3   ar
     5     3     4   ar
     6     4     7    1
     7     7     8   ar
     8     8     9   ar
     9     9    10   ar
    10    10    15    1
    11    15    16   ar
    12    16    17   ar
    13    17    18   ar
    14    18    19    1
    15    18    20   ar
    16    10    11   ar
    17    11    12   ar
    18    12    13    1
    19     4     5   ar
    20     5     6   ar
    21    24    25    1
    22    25    26    1
    23    26    27    1
    24    27    28    1
    25    27    29    1
    26    27    30    1
    27    30    31    1
    28    31    32    1
    29    31    33    1
    30    31    34    1
    31     6     1   ar
    32    34    25    1
    33    12     7   ar
    34    20    15   ar
    35    19    21    1
    36    19    22    1
    37    13    14    1
    38    30    35    1
@<TRIPOS>MOLECULE
*****
 35 38 0 0 0
SMALL
GASTEIGER

@<TRIPOS>ATOM
      1 C         141.6830  141.6594  164.4309 C.ar    1  UNL1        0.1535
      2 C         140.5164  141.2799  163.5679 C.ar    1  UNL1        0.0377
      3 C         140.2500  142.0281  162.2955 C.ar    1  UNL1        0.0239
      4 C         141.1503  143.1559  161.8860 C.ar    1  UNL1        0.1059
      5 N         142.3169  143.5354  162.7490 N.ar    1  UNL1       -0.1467
      6 N         142.5833  142.7872  164.0214 N.ar    1  UNL1       -0.1329
      7 C         140.8838  143.9041  160.6135 C.ar    1  UNL1        0.0532
      8 C         141.0714  143.2236  159.2900 C.ar    1  UNL1        0.0061
      9 C         140.8049  143.9718  158.0175 C.ar    1  UNL1        0.0194
     10 C         140.3509  145.4005  158.0685 C.ar    1  UNL1        0.0859
     11 C         140.1634  146.0810  159.3921 C.ar    1  UNL1        0.0558
     12 C         140.4298  145.3328  160.6645 C.ar    1  UNL1        0.1366
     13 O         140.2423  146.0133  161.9881 O.3     1  UNL1       -0.5054
     14 H         139.9587  146.9058  162.0200 H       1  UNL1        0.2922
     15 N         140.0845  146.1487  156.7961 N.ar    1  UNL1       -0.2269
     16 C         139.1784  147.3344  156.6436 C.ar    1  UNL1        0.1033
     17 C         139.2112  147.7611  155.2060 C.ar    1  UNL1        0.0563
     18 C         140.1377  146.8392  154.4699 C.ar    1  UNL1        0.1471
     19 N         140.4667  146.9026  153.0078 N.pl3   1  UNL1       -0.3412
     20 N         140.6774  145.8427  155.4527 N.ar    1  UNL1       -0.1504
     21 H         140.0596  147.5974  152.4414 H       1  UNL1        0.1438
     22 H         141.0897  146.2495  152.6147 H       1  UNL1        0.1438
     23 C         143.3611  140.6515  166.1393 C.3     1  UNL1        0.1135
     24 N         141.9495  140.9112  165.7034 N.pl3   1  UNL1       -0.2916
     25 C         140.8043  140.4227  166.5401 C.3     1  UNL1        0.0768
     26 C         140.6322  140.9256  167.9427 C.3     1  UNL1        0.0342
     27 C         139.4870  140.4371  168.7794 C.3     1  UNL1        0.0435
     28 C         138.5691  140.2732  169.9542 C.3     1  UNL1        0.0158
     29 C         140.1413  141.3715  169.7534 C.3     1  UNL1        0.0158
     30 N         138.5140  139.4458  168.2133 N.3     1  UNL1       -0.3015
     31 C         138.6861  138.9429  166.8106 C.3     1  UNL1        0.0435
     32 C         138.4295  138.1782  165.5460 C.3     1  UNL1        0.0158
     33 C         137.4518  138.1889  167.2081 C.3     1  UNL1        0.0158
     34 C         139.8312  139.4314  165.9740 C.3     1  UNL1        0.0342
     35 H         137.5917  139.8790  168.2598 H       1  UNL1        0.1231
@<TRIPOS>BOND
     1    23    24    1
     2    24     1    1
     3     1     2   ar
     4     2     3   ar
     5     3     4   ar
     6     4     7    1
     7     7     8   ar
     8     8     9   ar
     9     9    10   ar
    10    10    15    1
    11    15    16   ar
    12    16    17   ar
    13    17    18   ar
    14    18    19    1
    15    18    20   ar
    16    10    11   ar
    17    11    12   ar
    18    12    13    1
    19     4     5   ar
    20     5     6   ar
    21    24    25    1
    22    25    26    1
    23    26    27    1
    24    27    28    1
    25    27    29    1
    26    27    30    1
    27    30    31    1
    28    31    32    1
    29    31    33    1
    30    31    34    1
    31     6     1   ar
    32    34    25    1
    33    12     7   ar
    34    20    15   ar
    35    19    21    1
    36    19    22    1
    37    13    14    1
    38    30    35    1
@<TRIPOS>MOLECULE
*****
 35 38 0 0 0
SMALL
GASTEIGER

@<TRIPOS>ATOM
      1 C         139.5375  140.9697  165.3841 C.ar    1  UNL1        0.1535
      2 C         138.2918  141.4627  164.7095 C.ar    1  UNL1        0.0377
      3 C         138.3823  142.1609  163.3850 C.ar    1  UNL1        0.0239
      4 C         139.7185  142.3662  162.7352 C.ar    1  UNL1        0.1059
      5 N         140.9642  141.8732  163.4097 N.ar    1  UNL1       -0.1467
      6 N         140.8737  141.1750  164.7342 N.ar    1  UNL1       -0.1329
      7 C         139.8090  143.0644  161.4106 C.ar    1  UNL1        0.0532
      8 C         139.1801  142.4509  160.1949 C.ar    1  UNL1        0.0061
      9 C         139.2706  143.1492  158.8703 C.ar    1  UNL1        0.0194
     10 C         139.9899  144.4610  158.7616 C.ar    1  UNL1        0.0859
     11 C         140.6188  145.0744  159.9775 C.ar    1  UNL1        0.0558
     12 C         140.5283  144.3762  161.3019 C.ar    1  UNL1        0.1366
     13 O         141.1572  144.9897  162.5178 O.3     1  UNL1       -0.5054
     14 H         141.6066  145.8091  162.4499 H       1  UNL1        0.2922
     15 N         140.0804  145.1592  157.4372 N.ar    1  UNL1       -0.2269
     16 C         140.3684  144.5099  156.1160 C.ar    1  UNL1        0.1033
     17 C         140.3648  145.5788  155.0636 C.ar    1  UNL1        0.0563
     18 C         140.0745  146.8887  155.7345 C.ar    1  UNL1        0.1471
     19 N         139.9772  148.2236  155.0572 N.pl3   1  UNL1       -0.3412
     20 N         139.8988  146.6294  157.2014 N.ar    1  UNL1       -0.1504
     21 H         140.1089  148.2926  154.0840 H       1  UNL1        0.1438
     22 H         139.7815  149.0307  155.5860 H       1  UNL1        0.1438
     23 C         138.4835  139.1370  166.8941 C.3     1  UNL1        0.1135
     24 N         139.4470  140.2715  166.7086 N.pl3   1  UNL1       -0.2916
     25 C         140.3202  140.7077  167.8476 C.3     1  UNL1        0.0768
     26 C         140.2289  142.1117  168.3676 C.3     1  UNL1        0.0342
     27 C         141.1020  142.5480  169.5065 C.3     1  UNL1        0.0435
     28 C         141.7140  143.4263  170.5572 C.3     1  UNL1        0.0158
     29 C         140.3501  143.8208  169.2524 C.3     1  UNL1        0.0158
     30 N         142.0665  141.5803  170.1256 N.3     1  UNL1       -0.3015
     31 C         142.1579  140.1762  169.6056 C.3     1  UNL1        0.0435
     32 C         142.6065  138.7519  169.4641 C.3     1  UNL1        0.0158
     33 C         143.1868  140.1178  170.6954 C.3     1  UNL1        0.0158
     34 C         141.2847  139.7399  168.4666 C.3     1  UNL1        0.0342
     35 H         141.8227  141.5130  171.1137 H       1  UNL1        0.1231
@<TRIPOS>BOND
     1    23    24    1
     2    24     1    1
     3     1     2   ar
     4     2     3   ar
     5     3     4   ar
     6     4     7    1
     7     7     8   ar
     8     8     9   ar
     9     9    10   ar
    10    10    15    1
    11    15    16   ar
    12    16    17   ar
    13    17    18   ar
    14    18    19    1
    15    18    20   ar
    16    10    11   ar
    17    11    12   ar
    18    12    13    1
    19     4     5   ar
    20     5     6   ar
    21    24    25    1
    22    25    26    1
    23    26    27    1
    24    27    28    1
    25    27    29    1
    26    27    30    1
    27    30    31    1
    28    31    32    1
    29    31    33    1
    30    31    34    1
    31     6     1   ar
    32    34    25    1
    33    12     7   ar
    34    20    15   ar
    35    19    21    1
    36    19    22    1
    37    13    14    1
    38    30    35    1
@<TRIPOS>MOLECULE
*****
 35 38 0 0 0
SMALL
GASTEIGER

@<TRIPOS>ATOM
      1 C         141.8650  142.0723  164.4395 C.ar    1  UNL1        0.1535
      2 C         142.1984  140.9303  163.5259 C.ar    1  UNL1        0.0377
      3 C         141.4175  140.7291  162.2612 C.ar    1  UNL1        0.0239
      4 C         140.3032  141.6698  161.9100 C.ar    1  UNL1        0.1059
      5 N         139.9698  142.8118  162.8236 N.ar    1  UNL1       -0.1467
      6 N         140.7507  143.0130  164.0884 N.ar    1  UNL1       -0.1329
      7 C         139.5223  141.4686  160.6452 C.ar    1  UNL1        0.0532
      8 C         139.2795  140.0823  160.1262 C.ar    1  UNL1        0.0061
      9 C         138.4986  139.8811  158.8614 C.ar    1  UNL1        0.0194
     10 C         137.9604  141.0661  158.1156 C.ar    1  UNL1        0.0859
     11 C         138.2033  142.4524  158.6347 C.ar    1  UNL1        0.0558
     12 C         138.9842  142.6536  159.8994 C.ar    1  UNL1        0.1366
     13 O         139.2270  144.0399  160.4185 O.3     1  UNL1       -0.5054
     14 H         138.8908  144.7801  159.9526 H       1  UNL1        0.2922
     15 N         137.1795  140.8649  156.8508 N.ar    1  UNL1       -0.2269
     16 C         137.7402  140.8613  155.4595 C.ar    1  UNL1        0.1033
     17 C         136.6081  140.6261  154.5041 C.ar    1  UNL1        0.0563
     18 C         135.3476  140.4844  155.3049 C.ar    1  UNL1        0.1471
     19 N         133.9750  140.2383  154.7524 N.pl3   1  UNL1       -0.3412
     20 N         135.7008  140.6320  156.7553 N.ar    1  UNL1       -0.1504
     21 H         133.8432  140.1555  153.7803 H       1  UNL1        0.1438
     22 H         133.2058  140.1596  155.3619 H       1  UNL1        0.1438
     23 C         144.0168  142.8801  165.6509 C.3     1  UNL1        0.1135
     24 N         142.6460  142.2735  165.7043 N.pl3   1  UNL1       -0.2916
     25 C         142.0560  141.8682  167.0225 C.3     1  UNL1        0.0768
     26 C         140.8036  141.0436  167.0619 C.3     1  UNL1        0.0342
     27 C         140.2137  140.6383  168.3801 C.3     1  UNL1        0.0435
     28 C         139.2812  140.0118  169.3740 C.3     1  UNL1        0.0158
     29 C         139.2274  140.0015  167.4465 C.3     1  UNL1        0.0158
     30 N         140.8761  141.0575  169.6589 N.3     1  UNL1       -0.3015
     31 C         142.1286  141.8820  169.6196 C.3     1  UNL1        0.0435
     32 C         143.3198  142.6596  170.0954 C.3     1  UNL1        0.0158
     33 C         141.9523  141.7467  171.1030 C.3     1  UNL1        0.0158
     34 C         142.7185  142.2874  168.3014 C.3     1  UNL1        0.0342
     35 H         141.1022  140.2026  170.1674 H       1  UNL1        0.1231
@<TRIPOS>BOND
     1    23    24    1
     2    24     1    1
     3     1     2   ar
     4     2     3   ar
     5     3     4   ar
     6     4     7    1
     7     7     8   ar
     8     8     9   ar
     9     9    10   ar
    10    10    15    1
    11    15    16   ar
    12    16    17   ar
    13    17    18   ar
    14    18    19    1
    15    18    20   ar
    16    10    11   ar
    17    11    12   ar
    18    12    13    1
    19     4     5   ar
    20     5     6   ar
    21    24    25    1
    22    25    26    1
    23    26    27    1
    24    27    28    1
    25    27    29    1
    26    27    30    1
    27    30    31    1
    28    31    32    1
    29    31    33    1
    30    31    34    1
    31     6     1   ar
    32    34    25    1
    33    12     7   ar
    34    20    15   ar
    35    19    21    1
    36    19    22    1
    37    13    14    1
    38    30    35    1
