@<TRIPOS>MOLECULE
*****
 34 36 0 0 0
SMALL
GASTEIGER

@<TRIPOS>ATOM
      1 C         140.4335  139.9748  167.0758 C.ar    1  UNL1        0.0730
      2 C         140.2405  139.2431  165.7806 C.ar    1  UNL1        0.0322
      3 C         138.9979  138.4340  165.5542 C.ar    1  UNL1        0.0654
      4 C         137.9483  138.3565  166.6230 C.ar    1  UNL1        0.1133
      5 N         138.1412  139.0881  167.9181 N.ar    1  UNL1       -0.2367
      6 C         139.3838  139.8973  168.1445 C.ar    1  UNL1        0.1476
      7 C         139.5767  140.6289  169.4397 C.2     1  UNL1        0.2617
      8 N         139.3490  139.9208  170.7423 N.am    1  UNL1       -0.3240
      9 O         139.9974  142.0688  169.4323 O.2     1  UNL1       -0.2687
     10 H         139.0729  138.9759  170.7471 H       1  UNL1        0.1453
     11 H         139.4756  140.4011  171.5923 H       1  UNL1        0.1453
     12 N         141.6760  140.7839  167.3022 N.pl3   1  UNL1       -0.2966
     13 H         142.1168  140.7732  168.1824 H       1  UNL1        0.1537
     14 C         141.2880  144.7881  164.0134 C.3     1  UNL1        0.0312
     15 C         142.0530  143.6116  164.5431 C.ar    1  UNL1       -0.0179
     16 C         143.3888  143.2605  163.9581 C.ar    1  UNL1        0.0106
     17 C         144.1537  142.0839  164.4877 C.ar    1  UNL1        0.0605
     18 C         145.4896  141.7329  163.9027 C.3     1  UNL1        0.0521
     19 N         143.5828  141.2584  165.6024 N.ar    1  UNL1       -0.2349
     20 C         142.2470  141.6095  166.1874 C.ar    1  UNL1        0.1315
     21 C         141.4821  142.7861  165.6578 C.ar    1  UNL1        0.0301
     22 N         138.8050  137.7023  164.2590 N.pl3   1  UNL1       -0.3303
     23 H         138.4741  136.7751  164.2620 H       1  UNL1        0.1469
     24 C         139.1162  138.3834  162.9593 C.3     1  UNL1        0.1073
     25 C         138.2121  139.4633  162.4432 C.3     1  UNL1        0.1715
     26 S         138.5233  140.1445  161.1434 S.O2    1  UNL1       -0.0083
     27 O         138.3972  141.0765  159.9749 O.2     1  UNL1       -0.1729
     28 O         137.2642  140.8670  161.5212 O.2     1  UNL1       -0.1729
     29 C         139.7385  139.7457  160.3598 C.3     1  UNL1        0.1523
     30 C         140.6426  138.6657  160.8760 C.3     1  UNL1        0.0425
     31 C         140.3314  137.9846  162.1757 C.3     1  UNL1        0.0724
     32 N         141.2355  136.9046  162.6918 N.3     1  UNL1       -0.3208
     33 H         140.8754  136.5554  163.5799 H       1  UNL1        0.1189
     34 H         142.1726  137.2829  162.8301 H       1  UNL1        0.1189
@<TRIPOS>BOND
     1    14    15    1
     2    15    16   ar
     3    16    17   ar
     4    17    18    1
     5    17    19   ar
     6    19    20   ar
     7    20    12    1
     8    12     1    1
     9     1     2   ar
    10     2     3   ar
    11     3    22    1
    12    24    22    1
    13    24    25    1
    14    25    26    1
    15    26    27    2
    16    26    28    2
    17    26    29    1
    18    29    30    1
    19    30    31    1
    20    31    32    1
    21     3     4   ar
    22     4     5   ar
    23     5     6   ar
    24     6     7    1
    25     7     8   am
    26     7     9    2
    27    20    21   ar
    28    21    15   ar
    29     6     1   ar
    30    31    24    1
    31    12    13    1
    32    22    23    1
    33    32    33    1
    34    32    34    1
    35     8    10    1
    36     8    11    1
@<TRIPOS>MOLECULE
*****
 34 36 0 0 0
SMALL
GASTEIGER

@<TRIPOS>ATOM
      1 C         140.3886  139.9812  167.0768 C.ar    1  UNL1        0.0730
      2 C         140.2006  139.2510  165.7801 C.ar    1  UNL1        0.0322
      3 C         138.9693  138.4237  165.5569 C.ar    1  UNL1        0.0654
      4 C         137.9261  138.3268  166.6304 C.ar    1  UNL1        0.1133
      5 N         138.1141  139.0571  167.9270 N.ar    1  UNL1       -0.2367
      6 C         139.3453  139.8843  168.1503 C.ar    1  UNL1        0.1476
      7 C         139.5333  140.6146  169.4469 C.2     1  UNL1        0.2617
      8 N         139.2951  139.9067  170.7477 N.am    1  UNL1       -0.3240
      9 O         139.9595  142.0528  169.4427 O.2     1  UNL1       -0.2687
     10 H         139.0154  138.9628  170.7505 H       1  UNL1        0.1453
     11 H         139.4185  140.3861  171.5988 H       1  UNL1        0.1453
     12 N         141.6197  140.8085  167.3000 N.pl3   1  UNL1       -0.2966
     13 H         142.0764  140.7861  168.1719 H       1  UNL1        0.1537
     14 C         145.4173  141.9969  163.9584 C.3     1  UNL1        0.0312
     15 C         144.0540  142.2640  164.5240 C.ar    1  UNL1       -0.0179
     16 C         143.2260  143.3924  163.9844 C.ar    1  UNL1        0.0106
     17 C         141.8627  143.6595  164.5500 C.ar    1  UNL1        0.0605
     18 C         141.0347  144.7880  164.0104 C.3     1  UNL1        0.0521
     19 N         141.3272  142.7982  165.6552 N.ar    1  UNL1       -0.2349
     20 C         142.1552  141.6698  166.1948 C.ar    1  UNL1        0.1315
     21 C         143.5185  141.4027  165.6292 C.ar    1  UNL1        0.0301
     22 N         138.7813  137.6934  164.2603 N.pl3   1  UNL1       -0.3303
     23 H         138.4452  136.7681  164.2607 H       1  UNL1        0.1469
     24 C         139.1053  138.3731  162.9629 C.3     1  UNL1        0.1073
     25 C         138.2004  139.4446  162.4311 C.3     1  UNL1        0.1715
     26 S         138.5245  140.1243  161.1337 S.O2    1  UNL1       -0.0083
     27 O         138.4076  141.0519  159.9607 O.2     1  UNL1       -0.1729
     28 O         137.2549  140.8384  161.4918 O.2     1  UNL1       -0.1729
     29 C         139.7534  139.7323  160.3682 C.3     1  UNL1        0.1523
     30 C         140.6584  138.6607  160.9001 C.3     1  UNL1        0.0425
     31 C         140.3343  137.9811  162.1974 C.3     1  UNL1        0.0724
     32 N         141.2392  136.9095  162.7293 N.3     1  UNL1       -0.3208
     33 H         140.8695  136.5602  163.6134 H       1  UNL1        0.1189
     34 H         142.1715  137.2953  162.8793 H       1  UNL1        0.1189
@<TRIPOS>BOND
     1    14    15    1
     2    15    16   ar
     3    16    17   ar
     4    17    18    1
     5    17    19   ar
     6    19    20   ar
     7    20    12    1
     8    12     1    1
     9     1     2   ar
    10     2     3   ar
    11     3    22    1
    12    24    22    1
    13    24    25    1
    14    25    26    1
    15    26    27    2
    16    26    28    2
    17    26    29    1
    18    29    30    1
    19    30    31    1
    20    31    32    1
    21     3     4   ar
    22     4     5   ar
    23     5     6   ar
    24     6     7    1
    25     7     8   am
    26     7     9    2
    27    20    21   ar
    28    21    15   ar
    29     6     1   ar
    30    31    24    1
    31    12    13    1
    32    22    23    1
    33    32    33    1
    34    32    34    1
    35     8    10    1
    36     8    11    1
@<TRIPOS>MOLECULE
*****
 34 36 0 0 0
SMALL
GASTEIGER

@<TRIPOS>ATOM
      1 C         141.6806  142.7272  164.5123 C.ar    1  UNL1        0.0730
      2 C         141.9216  142.4603  165.9685 C.ar    1  UNL1        0.0322
      3 C         143.2664  142.7426  166.5702 C.ar    1  UNL1        0.0654
      4 C         144.3701  143.2917  165.7156 C.ar    1  UNL1        0.1133
      5 N         144.1291  143.5585  164.2594 N.ar    1  UNL1       -0.2367
      6 C         142.7844  143.2763  163.6577 C.ar    1  UNL1        0.1476
      7 C         142.5434  143.5432  162.2014 C.2     1  UNL1        0.2617
      8 N         142.6240  144.9444  161.6723 N.am    1  UNL1       -0.3240
      9 O         142.2218  142.4087  161.2742 O.2     1  UNL1       -0.2687
     10 H         142.8351  145.6890  162.2809 H       1  UNL1        0.1453
     11 H         142.4658  145.1196  160.7166 H       1  UNL1        0.1453
     12 N         140.3359  142.4450  163.9106 N.pl3   1  UNL1       -0.2966
     13 H         139.8164  143.1748  163.5023 H       1  UNL1        0.1537
     14 C         137.9574  138.5842  166.4477 C.3     1  UNL1        0.0312
     15 C         138.5935  139.1205  165.1996 C.ar    1  UNL1       -0.0179
     16 C         138.6764  138.2626  163.9719 C.ar    1  UNL1        0.0106
     17 C         139.3125  138.7989  162.7238 C.ar    1  UNL1        0.0605
     18 C         139.3955  137.9410  161.4961 C.3     1  UNL1        0.0521
     19 N         139.8657  140.1930  162.7033 N.ar    1  UNL1       -0.2349
     20 C         139.7828  141.0508  163.9310 C.ar    1  UNL1        0.1315
     21 C         139.1467  140.5145  165.1791 C.ar    1  UNL1        0.0301
     22 N         143.5075  142.4757  168.0265 N.pl3   1  UNL1       -0.3303
     23 H         144.4239  142.4962  168.3856 H       1  UNL1        0.1469
     24 C         142.3521  142.1776  168.9356 C.3     1  UNL1        0.1073
     25 C         141.4916  143.2951  169.4459 C.3     1  UNL1        0.1715
     26 S         140.3362  142.9969  170.3550 S.O2    1  UNL1       -0.0083
     27 O         139.1389  143.2170  171.2313 O.2     1  UNL1       -0.1729
     28 O         140.2151  144.4890  170.2607 O.2     1  UNL1       -0.1729
     29 C         140.0415  141.5812  170.7537 C.3     1  UNL1        0.1523
     30 C         140.9022  140.4637  170.2433 C.3     1  UNL1        0.0425
     31 C         142.0574  140.7619  169.3343 C.3     1  UNL1        0.0724
     32 N         142.9181  139.6443  168.8238 N.3     1  UNL1       -0.3208
     33 H         143.6498  140.0254  168.2241 H       1  UNL1        0.1189
     34 H         142.3455  138.9915  168.2887 H       1  UNL1        0.1189
@<TRIPOS>BOND
     1    14    15    1
     2    15    16   ar
     3    16    17   ar
     4    17    18    1
     5    17    19   ar
     6    19    20   ar
     7    20    12    1
     8    12     1    1
     9     1     2   ar
    10     2     3   ar
    11     3    22    1
    12    24    22    1
    13    24    25    1
    14    25    26    1
    15    26    27    2
    16    26    28    2
    17    26    29    1
    18    29    30    1
    19    30    31    1
    20    31    32    1
    21     3     4   ar
    22     4     5   ar
    23     5     6   ar
    24     6     7    1
    25     7     8   am
    26     7     9    2
    27    20    21   ar
    28    21    15   ar
    29     6     1   ar
    30    31    24    1
    31    12    13    1
    32    22    23    1
    33    32    33    1
    34    32    34    1
    35     8    10    1
    36     8    11    1
@<TRIPOS>MOLECULE
*****
 34 36 0 0 0
SMALL
GASTEIGER

@<TRIPOS>ATOM
      1 C         141.6353  140.2251  166.9156 C.ar    1  UNL1        0.0730
      2 C         140.5174  140.1935  165.9158 C.ar    1  UNL1        0.0322
      3 C         139.1106  139.9421  166.3715 C.ar    1  UNL1        0.0654
      4 C         138.8216  139.7222  167.8268 C.ar    1  UNL1        0.1133
      5 N         139.9394  139.7537  168.8266 N.ar    1  UNL1       -0.2367
      6 C         141.3462  140.0052  168.3710 C.ar    1  UNL1        0.1476
      7 C         142.4640  140.0367  169.3707 C.2     1  UNL1        0.2617
      8 N         142.7236  138.8447  170.2434 N.am    1  UNL1       -0.3240
      9 O         143.3223  141.2604  169.4977 O.2     1  UNL1       -0.2687
     10 H         142.1602  138.0416  170.1600 H       1  UNL1        0.1453
     11 H         143.4572  138.8654  170.8996 H       1  UNL1        0.1453
     12 N         143.0421  140.4765  166.4600 N.pl3   1  UNL1       -0.2966
     13 H         143.7990  140.1293  166.9850 H       1  UNL1        0.1537
     14 C         143.5495  145.0368  164.0214 C.3     1  UNL1        0.0312
     15 C         143.5493  143.5372  163.9851 C.ar    1  UNL1       -0.0179
     16 C         143.8027  142.8182  162.6933 C.ar    1  UNL1        0.0106
     17 C         143.8025  141.3187  162.6570 C.ar    1  UNL1        0.0605
     18 C         144.0560  140.5997  161.3651 C.3     1  UNL1        0.0521
     19 N         143.5490  140.5381  163.9125 N.ar    1  UNL1       -0.2349
     20 C         143.2956  141.2571  165.2043 C.ar    1  UNL1        0.1315
     21 C         143.2958  142.7567  165.2406 C.ar    1  UNL1        0.0301
     22 N         137.9928  139.9105  165.3717 N.pl3   1  UNL1       -0.3303
     23 H         137.2657  139.2536  165.4668 H       1  UNL1        0.1469
     24 C         137.9827  140.8799  164.2270 C.3     1  UNL1        0.1073
     25 C         137.8686  142.3519  164.4918 C.3     1  UNL1        0.1715
     26 S         137.8586  143.3213  163.3471 S.O2    1  UNL1       -0.0083
     27 O         137.8061  144.6221  162.6021 O.2     1  UNL1       -0.1729
     28 O         137.7362  144.2757  164.4978 O.2     1  UNL1       -0.1729
     29 C         137.9627  142.8187  161.9377 C.3     1  UNL1        0.1523
     30 C         138.0769  141.3466  161.6730 C.3     1  UNL1        0.0425
     31 C         138.0869  140.3772  162.8176 C.3     1  UNL1        0.0724
     32 N         138.2010  138.9052  162.5529 N.3     1  UNL1       -0.3208
     33 H         138.1921  138.3988  163.4382 H       1  UNL1        0.1189
     34 H         139.0742  138.7148  162.0612 H       1  UNL1        0.1189
@<TRIPOS>BOND
     1    14    15    1
     2    15    16   ar
     3    16    17   ar
     4    17    18    1
     5    17    19   ar
     6    19    20   ar
     7    20    12    1
     8    12     1    1
     9     1     2   ar
    10     2     3   ar
    11     3    22    1
    12    24    22    1
    13    24    25    1
    14    25    26    1
    15    26    27    2
    16    26    28    2
    17    26    29    1
    18    29    30    1
    19    30    31    1
    20    31    32    1
    21     3     4   ar
    22     4     5   ar
    23     5     6   ar
    24     6     7    1
    25     7     8   am
    26     7     9    2
    27    20    21   ar
    28    21    15   ar
    29     6     1   ar
    30    31    24    1
    31    12    13    1
    32    22    23    1
    33    32    33    1
    34    32    34    1
    35     8    10    1
    36     8    11    1
@<TRIPOS>MOLECULE
*****
 34 36 0 0 0
SMALL
GASTEIGER

@<TRIPOS>ATOM
      1 C         141.4330  140.4916  166.8601 C.ar    1  UNL1        0.0730
      2 C         142.4009  141.2815  166.0300 C.ar    1  UNL1        0.0322
      3 C         143.3060  142.2834  166.6835 C.ar    1  UNL1        0.0654
      4 C         143.2432  142.4954  168.1671 C.ar    1  UNL1        0.1133
      5 N         142.2752  141.7054  168.9972 N.ar    1  UNL1       -0.2367
      6 C         141.3701  140.7036  168.3438 C.ar    1  UNL1        0.1476
      7 C         140.4022  139.9137  169.1739 C.2     1  UNL1        0.2617
      8 N         140.8252  139.3724  170.5073 N.am    1  UNL1       -0.3240
      9 O         139.0112  139.6650  168.6705 O.2     1  UNL1       -0.2687
     10 H         141.7381  139.5357  170.8377 H       1  UNL1        0.1453
     11 H         140.1899  138.8540  171.0521 H       1  UNL1        0.1453
     12 N         140.5279  139.4897  166.2066 N.pl3   1  UNL1       -0.2966
     13 H         140.5622  138.5442  166.4788 H       1  UNL1        0.1537
     14 C         137.4539  143.1332  164.1390 C.3     1  UNL1        0.0312
     15 C         138.0335  141.7502  164.1046 C.ar    1  UNL1       -0.0179
     16 C         137.6559  140.8058  163.0021 C.ar    1  UNL1        0.0106
     17 C         138.2355  139.4228  162.9677 C.ar    1  UNL1        0.0605
     18 C         137.8578  138.4785  161.8651 C.3     1  UNL1        0.0521
     19 N         139.1929  138.9841  164.0359 N.ar    1  UNL1       -0.2349
     20 C         139.5705  139.9284  165.1384 C.ar    1  UNL1        0.1315
     21 C         138.9909  141.3115  165.1727 C.ar    1  UNL1        0.0301
     22 N         144.2740  143.0733  165.8534 N.pl3   1  UNL1       -0.3303
     23 H         145.0407  143.5185  166.2815 H       1  UNL1        0.1469
     24 C         144.0738  143.1850  164.3710 C.3     1  UNL1        0.1073
     25 C         143.0030  144.0819  163.8243 C.3     1  UNL1        0.1715
     26 S         142.8027  144.1936  162.3418 S.O2    1  UNL1       -0.0083
     27 O         142.2313  144.6306  161.0256 O.2     1  UNL1       -0.1729
     28 O         141.7337  145.1306  162.8204 O.2     1  UNL1       -0.1729
     29 C         143.6733  143.4083  161.4062 C.3     1  UNL1        0.1523
     30 C         144.7442  142.5114  161.9530 C.3     1  UNL1        0.0425
     31 C         144.9444  142.3998  163.4353 C.3     1  UNL1        0.0724
     32 N         146.0152  141.5029  163.9821 N.3     1  UNL1       -0.3208
     33 H         146.0098  141.5489  165.0011 H       1  UNL1        0.1189
     34 H         146.9242  141.8066  163.6329 H       1  UNL1        0.1189
@<TRIPOS>BOND
     1    14    15    1
     2    15    16   ar
     3    16    17   ar
     4    17    18    1
     5    17    19   ar
     6    19    20   ar
     7    20    12    1
     8    12     1    1
     9     1     2   ar
    10     2     3   ar
    11     3    22    1
    12    24    22    1
    13    24    25    1
    14    25    26    1
    15    26    27    2
    16    26    28    2
    17    26    29    1
    18    29    30    1
    19    30    31    1
    20    31    32    1
    21     3     4   ar
    22     4     5   ar
    23     5     6   ar
    24     6     7    1
    25     7     8   am
    26     7     9    2
    27    20    21   ar
    28    21    15   ar
    29     6     1   ar
    30    31    24    1
    31    12    13    1
    32    22    23    1
    33    32    33    1
    34    32    34    1
    35     8    10    1
    36     8    11    1
@<TRIPOS>MOLECULE
*****
 34 36 0 0 0
SMALL
GASTEIGER

@<TRIPOS>ATOM
      1 C         143.0190  141.2538  164.4134 C.ar    1  UNL1        0.0730
      2 C         142.5433  140.9845  165.8103 C.ar    1  UNL1        0.0322
      3 C         142.8863  139.6881  166.4826 C.ar    1  UNL1        0.0654
      4 C         143.7049  138.6611  165.7580 C.ar    1  UNL1        0.1133
      5 N         144.1805  138.9304  164.3611 N.ar    1  UNL1       -0.2367
      6 C         143.8376  140.2266  163.6888 C.ar    1  UNL1        0.1476
      7 C         144.3133  140.4959  162.2920 C.2     1  UNL1        0.2617
      8 N         144.4022  139.3738  161.3006 N.am    1  UNL1       -0.3240
      9 O         144.7000  141.8874  161.8865 O.2     1  UNL1       -0.2687
     10 H         144.1483  138.4605  161.5667 H       1  UNL1        0.1453
     11 H         144.7144  139.5505  160.3838 H       1  UNL1        0.1453
     12 N         142.6761  142.5501  163.7412 N.pl3   1  UNL1       -0.2966
     13 H         143.3924  143.1269  163.3899 H       1  UNL1        0.1537
     14 C         138.5101  145.0233  165.6193 C.3     1  UNL1        0.0312
     15 C         139.1589  144.2041  164.5433 C.ar    1  UNL1       -0.0179
     16 C         138.3734  143.8023  163.3302 C.ar    1  UNL1        0.0106
     17 C         139.0222  142.9831  162.2541 C.ar    1  UNL1        0.0605
     18 C         138.2367  142.5812  161.0410 C.3     1  UNL1        0.0521
     19 N         140.4564  142.5656  162.3911 N.ar    1  UNL1       -0.2349
     20 C         141.2418  142.9675  163.6041 C.ar    1  UNL1        0.1315
     21 C         140.5930  143.7867  164.6802 C.ar    1  UNL1        0.0301
     22 N         142.4106  139.4189  167.8795 N.pl3   1  UNL1       -0.3303
     23 H         142.3041  138.4918  168.1931 H       1  UNL1        0.1469
     24 C         142.0974  140.5623  168.7985 C.3     1  UNL1        0.1073
     25 C         143.1853  141.5042  169.2217 C.3     1  UNL1        0.1715
     26 S         142.8720  142.6476  170.1407 S.O2    1  UNL1       -0.0083
     27 O         143.0691  143.8682  170.9900 O.2     1  UNL1       -0.1729
     28 O         144.3417  142.8701  169.9398 O.2     1  UNL1       -0.1729
     29 C         141.4707  142.8489  170.6366 C.3     1  UNL1        0.1523
     30 C         140.3828  141.9069  170.2135 C.3     1  UNL1        0.0425
     31 C         140.6961  140.7636  169.2945 C.3     1  UNL1        0.0724
     32 N         139.6081  139.8216  168.8713 N.3     1  UNL1       -0.3208
     33 H         139.9962  139.1104  168.2516 H       1  UNL1        0.1189
     34 H         138.8810  140.3409  168.3795 H       1  UNL1        0.1189
@<TRIPOS>BOND
     1    14    15    1
     2    15    16   ar
     3    16    17   ar
     4    17    18    1
     5    17    19   ar
     6    19    20   ar
     7    20    12    1
     8    12     1    1
     9     1     2   ar
    10     2     3   ar
    11     3    22    1
    12    24    22    1
    13    24    25    1
    14    25    26    1
    15    26    27    2
    16    26    28    2
    17    26    29    1
    18    29    30    1
    19    30    31    1
    20    31    32    1
    21     3     4   ar
    22     4     5   ar
    23     5     6   ar
    24     6     7    1
    25     7     8   am
    26     7     9    2
    27    20    21   ar
    28    21    15   ar
    29     6     1   ar
    30    31    24    1
    31    12    13    1
    32    22    23    1
    33    32    33    1
    34    32    34    1
    35     8    10    1
    36     8    11    1
@<TRIPOS>MOLECULE
*****
 34 36 0 0 0
SMALL
GASTEIGER

@<TRIPOS>ATOM
      1 C         140.9977  140.5619  168.4747 C.ar    1  UNL1        0.0730
      2 C         140.2186  140.0822  167.2859 C.ar    1  UNL1        0.0322
      3 C         138.8348  139.5328  167.4682 C.ar    1  UNL1        0.0654
      4 C         138.2300  139.4630  168.8391 C.ar    1  UNL1        0.1133
      5 N         139.0091  139.9427  170.0278 N.ar    1  UNL1       -0.2367
      6 C         140.3929  140.4921  169.8456 C.ar    1  UNL1        0.1476
      7 C         141.1720  140.9717  171.0343 C.2     1  UNL1        0.2617
      8 N         142.4602  140.3001  171.4074 N.am    1  UNL1       -0.3240
      9 O         140.6627  142.1230  171.8500 O.2     1  UNL1       -0.2687
     10 H         142.7945  139.5445  170.8720 H       1  UNL1        0.1453
     11 H         142.9716  140.6149  172.1876 H       1  UNL1        0.1453
     12 N         142.3815  141.1113  168.2925 N.pl3   1  UNL1       -0.2966
     13 H         142.9246  141.3479  169.0788 H       1  UNL1        0.1537
     14 C         144.0303  139.1050  163.7918 C.3     1  UNL1        0.0312
     15 C         143.7622  140.2970  164.6619 C.ar    1  UNL1       -0.0179
     16 C         144.0503  141.6779  164.1520 C.ar    1  UNL1        0.0106
     17 C         143.7822  142.8699  165.0221 C.ar    1  UNL1        0.0605
     18 C         144.0704  144.2508  164.5121 C.3     1  UNL1        0.0521
     19 N         143.2259  142.6810  166.4023 N.ar    1  UNL1       -0.2349
     20 C         142.9378  141.3002  166.9122 C.ar    1  UNL1        0.1315
     21 C         143.2059  140.1081  166.0421 C.ar    1  UNL1        0.0301
     22 N         138.0557  139.0532  166.2795 N.pl3   1  UNL1       -0.3303
     23 H         137.1109  138.7959  166.3813 H       1  UNL1        0.1469
     24 C         138.7162  138.9656  164.9355 C.3     1  UNL1        0.1073
     25 C         139.7135  137.8798  164.6593 C.3     1  UNL1        0.1715
     26 S         140.3740  137.7922  163.3153 S.O2    1  UNL1       -0.0083
     27 O         141.2580  137.2984  162.2087 O.2     1  UNL1       -0.1729
     28 O         141.0178  136.6224  163.9986 O.2     1  UNL1       -0.1729
     29 C         140.0372  138.7905  162.2477 C.3     1  UNL1        0.1523
     30 C         139.0399  139.8765  162.5240 C.3     1  UNL1        0.0425
     31 C         138.3794  139.9640  163.8679 C.3     1  UNL1        0.0724
     32 N         137.3821  141.0499  164.1442 N.3     1  UNL1       -0.3208
     33 H         137.0363  140.9589  165.0994 H       1  UNL1        0.1189
     34 H         136.6026  140.9697  163.4913 H       1  UNL1        0.1189
@<TRIPOS>BOND
     1    14    15    1
     2    15    16   ar
     3    16    17   ar
     4    17    18    1
     5    17    19   ar
     6    19    20   ar
     7    20    12    1
     8    12     1    1
     9     1     2   ar
    10     2     3   ar
    11     3    22    1
    12    24    22    1
    13    24    25    1
    14    25    26    1
    15    26    27    2
    16    26    28    2
    17    26    29    1
    18    29    30    1
    19    30    31    1
    20    31    32    1
    21     3     4   ar
    22     4     5   ar
    23     5     6   ar
    24     6     7    1
    25     7     8   am
    26     7     9    2
    27    20    21   ar
    28    21    15   ar
    29     6     1   ar
    30    31    24    1
    31    12    13    1
    32    22    23    1
    33    32    33    1
    34    32    34    1
    35     8    10    1
    36     8    11    1
@<TRIPOS>MOLECULE
*****
 34 36 0 0 0
SMALL
GASTEIGER

@<TRIPOS>ATOM
      1 C         142.2208  143.9497  160.6569 C.ar    1  UNL1        0.0730
      2 C         142.9916  142.7788  161.1907 C.ar    1  UNL1        0.0322
      3 C         143.7234  141.8700  160.2480 C.ar    1  UNL1        0.0654
      4 C         143.6844  142.1321  158.7716 C.ar    1  UNL1        0.1133
      5 N         142.9137  143.3030  158.2379 N.ar    1  UNL1       -0.2367
      6 C         142.1819  144.2118  159.1805 C.ar    1  UNL1        0.1476
      7 C         141.4111  145.3827  158.6467 C.2     1  UNL1        0.2617
      8 N         142.0557  146.3236  157.6725 N.am    1  UNL1       -0.3240
      9 O         139.9957  145.6126  159.0871 O.2     1  UNL1       -0.2687
     10 H         142.9846  146.1728  157.3834 H       1  UNL1        0.1453
     11 H         141.5498  147.0921  157.3222 H       1  UNL1        0.1453
     12 N         141.4890  144.8584  161.5995 N.pl3   1  UNL1       -0.2966
     13 H         141.7630  145.7999  161.6879 H       1  UNL1        0.1537
     14 C         138.4876  145.0899  165.8349 C.3     1  UNL1        0.0312
     15 C         138.8390  144.4485  164.5252 C.ar    1  UNL1       -0.0179
     16 C         138.0411  143.2816  164.0235 C.ar    1  UNL1        0.0106
     17 C         138.3925  142.6403  162.7139 C.ar    1  UNL1        0.0605
     18 C         137.5946  141.4733  162.2122 C.3     1  UNL1        0.0521
     19 N         139.5418  143.1659  161.9059 N.ar    1  UNL1       -0.2349
     20 C         140.3396  144.3328  162.4075 C.ar    1  UNL1        0.1315
     21 C         139.9882  144.9741  163.7172 C.ar    1  UNL1        0.0301
     22 N         144.4941  140.6991  160.7818 N.pl3   1  UNL1       -0.3303
     23 H         145.1690  140.2559  160.2185 H       1  UNL1        0.1469
     24 C         144.2366  140.2034  162.1740 C.3     1  UNL1        0.1073
     25 C         143.1647  139.1835  162.4206 C.3     1  UNL1        0.1715
     26 S         142.9072  138.6878  163.8128 S.O2    1  UNL1       -0.0083
     27 O         142.2927  137.9171  164.9435 O.2     1  UNL1       -0.1729
     28 O         141.8794  137.8959  163.0601 O.2     1  UNL1       -0.1729
     29 C         143.7215  139.2120  164.9582 C.3     1  UNL1        0.1523
     30 C         144.7934  140.2320  164.7115 C.3     1  UNL1        0.0425
     31 C         145.0509  140.7276  163.3194 C.3     1  UNL1        0.0724
     32 N         146.1229  141.7476  163.0726 N.3     1  UNL1       -0.3208
     33 H         146.1597  141.9681  162.0775 H       1  UNL1        0.1189
     34 H         147.0235  141.3734  163.3715 H       1  UNL1        0.1189
@<TRIPOS>BOND
     1    14    15    1
     2    15    16   ar
     3    16    17   ar
     4    17    18    1
     5    17    19   ar
     6    19    20   ar
     7    20    12    1
     8    12     1    1
     9     1     2   ar
    10     2     3   ar
    11     3    22    1
    12    24    22    1
    13    24    25    1
    14    25    26    1
    15    26    27    2
    16    26    28    2
    17    26    29    1
    18    29    30    1
    19    30    31    1
    20    31    32    1
    21     3     4   ar
    22     4     5   ar
    23     5     6   ar
    24     6     7    1
    25     7     8   am
    26     7     9    2
    27    20    21   ar
    28    21    15   ar
    29     6     1   ar
    30    31    24    1
    31    12    13    1
    32    22    23    1
    33    32    33    1
    34    32    34    1
    35     8    10    1
    36     8    11    1
@<TRIPOS>MOLECULE
*****
 34 36 0 0 0
SMALL
GASTEIGER

@<TRIPOS>ATOM
      1 C         141.0648  141.9303  167.3225 C.ar    1  UNL1        0.0730
      2 C         141.9751  141.2164  166.3676 C.ar    1  UNL1        0.0322
      3 C         142.6802  139.9643  166.7978 C.ar    1  UNL1        0.0654
      4 C         142.4752  139.4261  168.1828 C.ar    1  UNL1        0.1133
      5 N         141.5649  140.1400  169.1377 N.ar    1  UNL1       -0.2367
      6 C         140.8598  141.3920  168.7076 C.ar    1  UNL1        0.1476
      7 C         139.9496  142.1059  169.6625 C.2     1  UNL1        0.2617
      8 N         138.9982  141.3237  170.5186 N.am    1  UNL1       -0.3240
      9 O         139.9907  143.6022  169.7613 O.2     1  UNL1       -0.2687
     10 H         138.9712  140.3417  170.4537 H       1  UNL1        0.1453
     11 H         138.4008  141.7922  171.1453 H       1  UNL1        0.1453
     12 N         140.3597  143.1824  166.8924 N.pl3   1  UNL1       -0.2966
     13 H         140.2668  143.9353  167.5199 H       1  UNL1        0.1537
     14 C         137.3162  141.3124  163.1188 C.3     1  UNL1        0.0312
     15 C         138.2743  142.3523  163.6195 C.ar    1  UNL1       -0.0179
     16 C         138.6686  143.4971  162.7342 C.ar    1  UNL1        0.0106
     17 C         139.6267  144.5370  163.2349 C.ar    1  UNL1        0.0605
     18 C         140.0210  145.6818  162.3495 C.3     1  UNL1        0.0521
     19 N         140.1904  144.4321  164.6210 N.ar    1  UNL1       -0.2349
     20 C         139.7960  143.2873  165.5063 C.ar    1  UNL1        0.1315
     21 C         138.8379  142.2474  165.0056 C.ar    1  UNL1        0.0301
     22 N         143.5904  139.2504  165.8429 N.pl3   1  UNL1       -0.3303
     23 H         144.4872  138.9684  166.1353 H       1  UNL1        0.1469
     24 C         143.1343  138.9661  164.4424 C.3     1  UNL1        0.1073
     25 C         141.8473  138.2324  164.2072 C.3     1  UNL1        0.1715
     26 S         141.3912  137.9482  162.8067 S.O2    1  UNL1       -0.0083
     27 O         140.5444  137.4475  161.6744 O.2     1  UNL1       -0.1729
     28 O         140.2663  137.3248  163.5786 O.2     1  UNL1       -0.1729
     29 C         142.2220  138.3977  161.6416 C.3     1  UNL1        0.1523
     30 C         143.5090  139.1315  161.8768 C.3     1  UNL1        0.0425
     31 C         143.9651  139.4157  163.2772 C.3     1  UNL1        0.0724
     32 N         145.2521  140.1494  163.5125 N.3     1  UNL1       -0.3208
     33 H         145.4051  140.2545  164.5155 H       1  UNL1        0.1189
     34 H         145.2026  141.0708  163.0777 H       1  UNL1        0.1189
@<TRIPOS>BOND
     1    14    15    1
     2    15    16   ar
     3    16    17   ar
     4    17    18    1
     5    17    19   ar
     6    19    20   ar
     7    20    12    1
     8    12     1    1
     9     1     2   ar
    10     2     3   ar
    11     3    22    1
    12    24    22    1
    13    24    25    1
    14    25    26    1
    15    26    27    2
    16    26    28    2
    17    26    29    1
    18    29    30    1
    19    30    31    1
    20    31    32    1
    21     3     4   ar
    22     4     5   ar
    23     5     6   ar
    24     6     7    1
    25     7     8   am
    26     7     9    2
    27    20    21   ar
    28    21    15   ar
    29     6     1   ar
    30    31    24    1
    31    12    13    1
    32    22    23    1
    33    32    33    1
    34    32    34    1
    35     8    10    1
    36     8    11    1
