@<TRIPOS>MOLECULE
*****
 35 38 0 0 0
SMALL
GASTEIGER

@<TRIPOS>ATOM
      1 N         142.5650  140.2482  168.3264 N.3     1  UNL1       -0.2684
      2 C         142.7313  139.2952  167.1802 C.3     1  UNL1        0.1035
      3 C         143.1288  139.8098  165.8285 C.3     1  UNL1        0.1470
      4 C         143.5264  140.3245  164.4768 C.3     1  UNL1        0.1035
      5 N         143.7577  141.7923  164.2714 N.3     1  UNL1       -0.2673
      6 C         143.5914  142.7454  165.4177 C.3     1  UNL1        0.1035
      7 C         143.1939  142.2307  166.7694 C.3     1  UNL1        0.1470
      8 C         142.7963  141.7160  168.1210 C.3     1  UNL1        0.1035
      9 O         143.3601  141.2776  165.6231 O.3     1  UNL1       -0.3530
     10 C         142.1675  139.7336  169.6782 C.3     1  UNL1        0.0761
     11 C         140.7555  139.8968  170.1573 C.3     1  UNL1        0.0646
     12 C         139.7146  140.4711  169.2425 C.3     1  UNL1        0.2068
     13 O         138.9295  139.5675  168.3386 O.3     1  UNL1       -0.4754
     14 C         139.3009  139.9769  163.8727 C.ar    1  UNL1        0.0686
     15 C         138.7381  138.7196  164.4664 C.ar    1  UNL1        0.0134
     16 C         138.6143  138.5831  165.9550 C.ar    1  UNL1        0.0376
     17 C         139.0533  139.7040  166.8500 C.ar    1  UNL1        0.1386
     18 C         139.6161  140.9613  166.2564 C.ar    1  UNL1        0.0376
     19 C         139.7399  141.0978  164.7677 C.ar    1  UNL1        0.0134
     20 N         139.5485  140.2499  160.8954 N.1     1  UNL1       -0.1908
     21 C         139.4247  140.1135  162.3841 C.1     1  UNL1        0.1004
     22 C         144.1552  142.3069  162.9197 C.3     1  UNL1        0.0913
     23 C         144.3612  143.7776  162.7080 C.3     1  UNL1        0.1087
     24 N         143.2857  144.6003  162.0628 N.3     1  UNL1       -0.1780
     25 H         143.2931  144.3679  161.0696 H       1  UNL1        0.1488
     26 S         141.8649  144.4739  162.5265 S.O2    1  UNL1        0.0603
     27 O         141.5783  143.5350  161.3924 O.2     1  UNL1       -0.1530
     28 O         142.1515  145.4128  163.6606 O.2     1  UNL1       -0.1530
     29 C         140.4439  144.3475  162.9903 C.ar    1  UNL1        0.1242
     30 C         139.4155  143.7227  162.0949 C.ar    1  UNL1        0.0200
     31 C         137.9946  143.5963  162.5586 C.ar    1  UNL1        0.0037
     32 C         137.6022  144.0947  163.9179 C.ar    1  UNL1        0.0297
     33 C         138.6307  144.7195  164.8133 C.ar    1  UNL1        0.1415
     34 F         138.2382  145.2180  166.1726 F       1  UNL1       -0.2041
     35 C         140.0515  144.8460  164.3496 C.ar    1  UNL1        0.0495
@<TRIPOS>BOND
     1    20    21    3
     2    21    14    1
     3    14    15   ar
     4    15    16   ar
     5    16    17   ar
     6    17    13    1
     7    13    12    1
     8    12    11    1
     9    11    10    1
    10    10     1    1
    11     1     2    1
    12     2     3    1
    13     3     4    1
    14     4     5    1
    15     5    22    1
    16    22    23    1
    17    23    24    1
    18    24    26    1
    19    26    27    2
    20    26    28    2
    21    26    29    1
    22    29    30   ar
    23    30    31   ar
    24    31    32   ar
    25    32    33   ar
    26    33    34    1
    27    33    35   ar
    28     5     6    1
    29     6     7    1
    30     7     8    1
    31     7     9    1
    32    17    18   ar
    33    18    19   ar
    34    19    14   ar
    35     8     1    1
    36     9     3    1
    37    35    29   ar
    38    24    25    1
@<TRIPOS>MOLECULE
*****
 35 38 0 0 0
SMALL
GASTEIGER

@<TRIPOS>ATOM
      1 N         138.7341  139.4021  163.6507 N.3     1  UNL1       -0.2684
      2 C         138.2841  140.4277  164.6485 C.3     1  UNL1        0.1035
      3 C         138.2697  141.8806  164.2760 C.3     1  UNL1        0.1470
      4 C         138.2553  143.3336  163.9035 C.3     1  UNL1        0.1035
      5 N         138.6909  143.7609  162.5332 N.3     1  UNL1       -0.2673
      6 C         139.1409  142.7352  161.5354 C.3     1  UNL1        0.1035
      7 C         139.1553  141.2823  161.9079 C.3     1  UNL1        0.1470
      8 C         139.1697  139.8294  162.2804 C.3     1  UNL1        0.1035
      9 O         138.7053  142.3079  162.9057 O.3     1  UNL1       -0.3530
     10 C         138.7485  137.9491  164.0232 C.3     1  UNL1        0.0761
     11 C         139.8886  137.3909  164.8222 C.3     1  UNL1        0.0646
     12 C         141.2712  137.3672  164.2408 C.3     1  UNL1        0.2068
     13 O         142.0556  138.6399  164.1190 O.3     1  UNL1       -0.4754
     14 C         142.4920  141.3627  167.6751 C.ar    1  UNL1        0.0686
     15 C         142.8621  139.9137  167.7901 C.ar    1  UNL1        0.0134
     16 C         142.7167  139.0060  166.6048 C.ar    1  UNL1        0.0376
     17 C         142.2011  139.5475  165.3044 C.ar    1  UNL1        0.1386
     18 C         141.8309  140.9965  165.1893 C.ar    1  UNL1        0.0376
     19 C         141.9764  141.9042  166.3747 C.ar    1  UNL1        0.0134
     20 N         142.7828  143.1780  170.0458 N.1     1  UNL1       -0.1908
     21 C         142.6374  142.2703  168.8604 C.1     1  UNL1        0.1004
     22 C         138.6765  145.2138  162.1607 C.3     1  UNL1        0.0913
     23 C         139.9439  146.0145  162.2144 C.3     1  UNL1        0.1087
     24 N         141.1629  145.5393  161.4809 N.3     1  UNL1       -0.1780
     25 H         141.6411  146.3710  161.1347 H       1  UNL1        0.1488
     26 S         142.1922  144.7129  162.1933 S.O2    1  UNL1        0.0603
     27 O         141.6988  145.2338  163.5105 O.2     1  UNL1       -0.1530
     28 O         142.6857  144.1920  160.8761 O.2     1  UNL1       -0.1530
     29 C         143.2217  143.8865  162.9057 C.ar    1  UNL1        0.1242
     30 C         143.7079  142.6052  162.2959 C.ar    1  UNL1        0.0200
     31 C         144.7372  141.7788  163.0082 C.ar    1  UNL1        0.0037
     32 C         145.2804  142.2337  164.3303 C.ar    1  UNL1        0.0297
     33 C         144.7942  143.5151  164.9401 C.ar    1  UNL1        0.1415
     34 F         145.3374  143.9700  166.2622 F       1  UNL1       -0.2041
     35 C         143.7648  144.3415  164.2278 C.ar    1  UNL1        0.0495
@<TRIPOS>BOND
     1    20    21    3
     2    21    14    1
     3    14    15   ar
     4    15    16   ar
     5    16    17   ar
     6    17    13    1
     7    13    12    1
     8    12    11    1
     9    11    10    1
    10    10     1    1
    11     1     2    1
    12     2     3    1
    13     3     4    1
    14     4     5    1
    15     5    22    1
    16    22    23    1
    17    23    24    1
    18    24    26    1
    19    26    27    2
    20    26    28    2
    21    26    29    1
    22    29    30   ar
    23    30    31   ar
    24    31    32   ar
    25    32    33   ar
    26    33    34    1
    27    33    35   ar
    28     5     6    1
    29     6     7    1
    30     7     8    1
    31     7     9    1
    32    17    18   ar
    33    18    19   ar
    34    19    14   ar
    35     8     1    1
    36     9     3    1
    37    35    29   ar
    38    24    25    1
@<TRIPOS>MOLECULE
*****
 35 38 0 0 0
SMALL
GASTEIGER

@<TRIPOS>ATOM
      1 N         140.5020  138.6850  162.0725 N.3     1  UNL1       -0.2684
      2 C         139.8252  139.0565  160.7865 C.3     1  UNL1        0.1035
      3 C         140.2999  140.2460  160.0056 C.3     1  UNL1        0.1470
      4 C         140.7745  141.4355  159.2246 C.3     1  UNL1        0.1035
      5 N         141.9261  142.2533  159.7297 N.3     1  UNL1       -0.2673
      6 C         142.6029  141.8817  161.0157 C.3     1  UNL1        0.1035
      7 C         142.1282  140.6922  161.7966 C.3     1  UNL1        0.1470
      8 C         141.6536  139.5028  162.5775 C.3     1  UNL1        0.1035
      9 O         141.4514  141.0638  160.5107 O.3     1  UNL1       -0.3530
     10 C         140.0274  137.4955  162.8535 C.3     1  UNL1        0.0761
     11 C         138.8842  137.6367  163.8143 C.3     1  UNL1        0.0646
     12 C         138.8870  138.7443  164.8258 C.3     1  UNL1        0.2068
     13 O         140.0632  138.9226  165.7394 O.3     1  UNL1       -0.4754
     14 C         140.2313  142.4501  168.5285 C.ar    1  UNL1        0.0686
     15 C         140.5531  142.6278  167.0742 C.ar    1  UNL1        0.0134
     16 C         140.4970  141.4520  166.1445 C.ar    1  UNL1        0.0376
     17 C         140.1192  140.0984  166.6691 C.ar    1  UNL1        0.1386
     18 C         139.7975  139.9207  168.1234 C.ar    1  UNL1        0.0376
     19 C         139.8536  141.0966  169.0531 C.ar    1  UNL1        0.0134
     20 N         140.3434  144.8018  170.3878 N.1     1  UNL1       -0.1908
     21 C         140.2874  143.6259  169.4581 C.1     1  UNL1        0.1004
     22 C         142.4007  143.4428  158.9488 C.3     1  UNL1        0.0913
     23 C         141.6498  144.7390  159.0260 C.3     1  UNL1        0.1087
     24 N         141.5251  145.4565  160.3373 N.3     1  UNL1       -0.1780
     25 H         141.2529  146.4159  160.1233 H       1  UNL1        0.1488
     26 S         140.5672  144.9565  161.3777 S.O2    1  UNL1        0.0603
     27 O         139.5135  144.7834  160.3243 O.2     1  UNL1       -0.1530
     28 O         141.6209  145.1296  162.4311 O.2     1  UNL1       -0.1530
     29 C         139.6093  144.4564  162.4181 C.ar    1  UNL1        0.1242
     30 C         138.7201  143.2861  162.1183 C.ar    1  UNL1        0.0200
     31 C         137.7623  142.7861  163.1586 C.ar    1  UNL1        0.0037
     32 C         137.6935  143.4563  164.4988 C.ar    1  UNL1        0.0297
     33 C         138.5827  144.6266  164.7986 C.ar    1  UNL1        0.1415
     34 F         138.5139  145.2968  166.1388 F       1  UNL1       -0.2041
     35 C         139.5405  145.1266  163.7583 C.ar    1  UNL1        0.0495
@<TRIPOS>BOND
     1    20    21    3
     2    21    14    1
     3    14    15   ar
     4    15    16   ar
     5    16    17   ar
     6    17    13    1
     7    13    12    1
     8    12    11    1
     9    11    10    1
    10    10     1    1
    11     1     2    1
    12     2     3    1
    13     3     4    1
    14     4     5    1
    15     5    22    1
    16    22    23    1
    17    23    24    1
    18    24    26    1
    19    26    27    2
    20    26    28    2
    21    26    29    1
    22    29    30   ar
    23    30    31   ar
    24    31    32   ar
    25    32    33   ar
    26    33    34    1
    27    33    35   ar
    28     5     6    1
    29     6     7    1
    30     7     8    1
    31     7     9    1
    32    17    18   ar
    33    18    19   ar
    34    19    14   ar
    35     8     1    1
    36     9     3    1
    37    35    29   ar
    38    24    25    1
@<TRIPOS>MOLECULE
*****
 35 38 0 0 0
SMALL
GASTEIGER

@<TRIPOS>ATOM
      1 N         141.5888  139.5009  167.3147 N.3     1  UNL1       -0.2684
      2 C         140.1011  139.6873  167.3594 C.3     1  UNL1        0.1035
      3 C         139.2666  139.3493  166.1597 C.3     1  UNL1        0.1470
      4 C         138.4320  139.0113  164.9600 C.3     1  UNL1        0.1035
      5 N         139.0852  138.4869  163.7156 N.3     1  UNL1       -0.2673
      6 C         140.5729  138.3006  163.6710 C.3     1  UNL1        0.1035
      7 C         141.4074  138.6386  164.8707 C.3     1  UNL1        0.1470
      8 C         142.2420  138.9766  166.0704 C.3     1  UNL1        0.1035
      9 O         139.9198  138.8249  164.9154 O.3     1  UNL1       -0.3530
     10 C         142.4234  139.8389  168.5145 C.3     1  UNL1        0.0761
     11 C         142.9934  141.2179  168.6671 C.3     1  UNL1        0.0646
     12 C         142.6847  142.2742  167.6478 C.3     1  UNL1        0.2068
     13 O         143.7634  142.7700  166.7311 O.3     1  UNL1       -0.4754
     14 C         142.7994  143.7523  162.4467 C.ar    1  UNL1        0.0686
     15 C         142.2133  142.5283  163.0857 C.ar    1  UNL1        0.0134
     16 C         142.5346  142.2009  164.5138 C.ar    1  UNL1        0.0376
     17 C         143.4421  143.0974  165.3030 C.ar    1  UNL1        0.1386
     18 C         144.0283  144.3214  164.6640 C.ar    1  UNL1        0.0376
     19 C         143.7069  144.6488  163.2358 C.ar    1  UNL1        0.0134
     20 N         142.1568  144.4072  159.5905 N.1     1  UNL1       -0.1908
     21 C         142.4781  144.0797  161.0186 C.1     1  UNL1        0.1004
     22 C         138.2506  138.1490  162.5160 C.3     1  UNL1        0.0913
     23 C         138.2181  139.0784  161.3390 C.3     1  UNL1        0.1087
     24 N         137.4323  140.3539  161.4121 N.3     1  UNL1       -0.1780
     25 H         136.5360  140.1235  161.8410 H       1  UNL1        0.1488
     26 S         137.9814  141.5311  162.1623 S.O2    1  UNL1        0.0603
     27 O         139.1758  141.5520  161.2551 O.2     1  UNL1       -0.1530
     28 O         136.7870  141.5101  163.0694 O.2     1  UNL1       -0.1530
     29 C         138.5305  142.7083  162.9125 C.ar    1  UNL1        0.1242
     30 C         138.6759  142.6455  164.4041 C.ar    1  UNL1        0.0200
     31 C         139.2250  143.8226  165.1544 C.ar    1  UNL1        0.0037
     32 C         139.6286  145.0625  164.4130 C.ar    1  UNL1        0.0297
     33 C         139.4831  145.1253  162.9214 C.ar    1  UNL1        0.1415
     34 F         139.8867  146.3653  162.1801 F       1  UNL1       -0.2041
     35 C         138.9341  143.9482  162.1712 C.ar    1  UNL1        0.0495
@<TRIPOS>BOND
     1    20    21    3
     2    21    14    1
     3    14    15   ar
     4    15    16   ar
     5    16    17   ar
     6    17    13    1
     7    13    12    1
     8    12    11    1
     9    11    10    1
    10    10     1    1
    11     1     2    1
    12     2     3    1
    13     3     4    1
    14     4     5    1
    15     5    22    1
    16    22    23    1
    17    23    24    1
    18    24    26    1
    19    26    27    2
    20    26    28    2
    21    26    29    1
    22    29    30   ar
    23    30    31   ar
    24    31    32   ar
    25    32    33   ar
    26    33    34    1
    27    33    35   ar
    28     5     6    1
    29     6     7    1
    30     7     8    1
    31     7     9    1
    32    17    18   ar
    33    18    19   ar
    34    19    14   ar
    35     8     1    1
    36     9     3    1
    37    35    29   ar
    38    24    25    1
@<TRIPOS>MOLECULE
*****
 35 38 0 0 0
SMALL
GASTEIGER

@<TRIPOS>ATOM
      1 N         141.5641  138.3975  162.5780 N.3     1  UNL1       -0.2684
      2 C         142.8900  139.0734  162.7654 C.3     1  UNL1        0.1035
      3 C         143.2311  140.2921  161.9602 C.3     1  UNL1        0.1470
      4 C         143.5722  141.5108  161.1549 C.3     1  UNL1        0.1035
      5 N         142.5873  142.0537  160.1623 N.3     1  UNL1       -0.2673
      6 C         141.2613  141.3778  159.9749 C.3     1  UNL1        0.1035
      7 C         140.9203  140.1591  160.7801 C.3     1  UNL1        0.1470
      8 C         140.5792  138.9404  161.5853 C.3     1  UNL1        0.1035
      9 O         142.2462  140.8349  160.9675 O.3     1  UNL1       -0.3530
     10 C         141.2230  137.1788  163.3832 C.3     1  UNL1        0.0761
     11 C         140.5419  137.3241  164.7117 C.3     1  UNL1        0.0646
     12 C         139.3053  138.1646  164.8326 C.3     1  UNL1        0.2068
     13 O         139.2903  139.3485  165.7536 O.3     1  UNL1       -0.4754
     14 C         142.7993  142.1640  165.8559 C.ar    1  UNL1        0.0686
     15 C         142.6403  141.1244  166.9255 C.ar    1  UNL1        0.0134
     16 C         141.4707  140.1859  166.8914 C.ar    1  UNL1        0.0376
     17 C         140.4599  140.2870  165.7876 C.ar    1  UNL1        0.1386
     18 C         140.6189  141.3265  164.7180 C.ar    1  UNL1        0.0376
     19 C         141.7886  142.2650  164.7521 C.ar    1  UNL1        0.0134
     20 N         145.1385  144.0410  165.9240 N.1     1  UNL1       -0.1908
     21 C         143.9689  143.1024  165.8899 C.1     1  UNL1        0.1004
     22 C         142.9284  143.2724  159.3571 C.3     1  UNL1        0.0913
     23 C         141.9312  144.3847  159.2209 C.3     1  UNL1        0.1087
     24 N         141.6314  145.2708  160.3934 N.3     1  UNL1       -0.1780
     25 H         141.3049  146.1599  160.0147 H       1  UNL1        0.1488
     26 S         140.6252  144.8418  161.4199 S.O2    1  UNL1        0.0603
     27 O         139.5982  144.6681  160.3405 O.2     1  UNL1       -0.1530
     28 O         141.6523  145.0155  162.4992 O.2     1  UNL1       -0.1530
     29 C         139.6191  144.4127  162.4464 C.ar    1  UNL1        0.1242
     30 C         138.6417  143.3204  162.1278 C.ar    1  UNL1        0.0200
     31 C         137.6356  142.8914  163.1542 C.ar    1  UNL1        0.0037
     32 C         137.6069  143.5546  164.4992 C.ar    1  UNL1        0.0297
     33 C         138.5843  144.6470  164.8179 C.ar    1  UNL1        0.1415
     34 F         138.5555  145.3102  166.1630 F       1  UNL1       -0.2041
     35 C         139.5904  145.0760  163.7914 C.ar    1  UNL1        0.0495
@<TRIPOS>BOND
     1    20    21    3
     2    21    14    1
     3    14    15   ar
     4    15    16   ar
     5    16    17   ar
     6    17    13    1
     7    13    12    1
     8    12    11    1
     9    11    10    1
    10    10     1    1
    11     1     2    1
    12     2     3    1
    13     3     4    1
    14     4     5    1
    15     5    22    1
    16    22    23    1
    17    23    24    1
    18    24    26    1
    19    26    27    2
    20    26    28    2
    21    26    29    1
    22    29    30   ar
    23    30    31   ar
    24    31    32   ar
    25    32    33   ar
    26    33    34    1
    27    33    35   ar
    28     5     6    1
    29     6     7    1
    30     7     8    1
    31     7     9    1
    32    17    18   ar
    33    18    19   ar
    34    19    14   ar
    35     8     1    1
    36     9     3    1
    37    35    29   ar
    38    24    25    1
@<TRIPOS>MOLECULE
*****
 35 38 0 0 0
SMALL
GASTEIGER

@<TRIPOS>ATOM
      1 N         143.8988  140.0323  163.2353 N.3     1  UNL1       -0.2684
      2 C         143.6027  140.4041  161.8126 C.3     1  UNL1        0.1035
      3 C         142.2698  140.0691  161.2117 C.3     1  UNL1        0.1470
      4 C         140.9369  139.7342  160.6108 C.3     1  UNL1        0.1035
      5 N         139.9000  139.0273  161.4326 N.3     1  UNL1       -0.2673
      6 C         140.1961  138.6555  162.8554 C.3     1  UNL1        0.1035
      7 C         141.5290  138.9905  163.4562 C.3     1  UNL1        0.1470
      8 C         142.8620  139.3255  164.0571 C.3     1  UNL1        0.1035
      9 O         141.2330  139.3623  162.0336 O.3     1  UNL1       -0.3530
     10 C         145.2318  140.3673  163.8362 C.3     1  UNL1        0.0761
     11 C         145.5931  141.7972  164.1098 C.3     1  UNL1        0.0646
     12 C         144.5140  142.8093  164.3575 C.3     1  UNL1        0.2068
     13 O         144.1951  143.2377  165.7591 O.3     1  UNL1       -0.4754
     14 C         140.8823  141.2111  168.0325 C.ar    1  UNL1        0.0686
     15 C         140.6895  141.5731  166.5896 C.ar    1  UNL1        0.0134
     16 C         141.7937  142.2486  165.8318 C.ar    1  UNL1        0.0376
     17 C         143.0908  142.5622  166.5169 C.ar    1  UNL1        0.1386
     18 C         143.2836  142.2002  167.9598 C.ar    1  UNL1        0.0376
     19 C         142.1793  141.5247  168.7176 C.ar    1  UNL1        0.0134
     20 N         138.6737  139.8601  169.5480 N.1     1  UNL1       -0.1908
     21 C         139.7780  140.5356  168.7902 C.1     1  UNL1        0.1004
     22 C         138.5671  138.6924  160.8318 C.3     1  UNL1        0.0913
     23 C         137.5057  139.7470  160.7260 C.3     1  UNL1        0.1087
     24 N         137.0327  140.4612  161.9574 N.3     1  UNL1       -0.1780
     25 H         136.9685  139.7618  162.6971 H       1  UNL1        0.1488
     26 S         137.8271  141.6063  162.5119 S.O2    1  UNL1        0.0603
     27 O         138.0028  142.1551  161.1271 O.2     1  UNL1       -0.1530
     28 O         137.6514  141.0575  163.8968 O.2     1  UNL1       -0.1530
     29 C         138.6215  142.7515  163.0666 C.ar    1  UNL1        0.1242
     30 C         139.9047  143.1628  162.4076 C.ar    1  UNL1        0.0200
     31 C         140.6992  144.3079  162.9622 C.ar    1  UNL1        0.0037
     32 C         140.2104  145.0417  164.1757 C.ar    1  UNL1        0.0297
     33 C         138.9272  144.6303  164.8346 C.ar    1  UNL1        0.1415
     34 F         138.4384  145.3642  166.0482 F       1  UNL1       -0.2041
     35 C         138.1328  143.4852  164.2801 C.ar    1  UNL1        0.0495
@<TRIPOS>BOND
     1    20    21    3
     2    21    14    1
     3    14    15   ar
     4    15    16   ar
     5    16    17   ar
     6    17    13    1
     7    13    12    1
     8    12    11    1
     9    11    10    1
    10    10     1    1
    11     1     2    1
    12     2     3    1
    13     3     4    1
    14     4     5    1
    15     5    22    1
    16    22    23    1
    17    23    24    1
    18    24    26    1
    19    26    27    2
    20    26    28    2
    21    26    29    1
    22    29    30   ar
    23    30    31   ar
    24    31    32   ar
    25    32    33   ar
    26    33    34    1
    27    33    35   ar
    28     5     6    1
    29     6     7    1
    30     7     8    1
    31     7     9    1
    32    17    18   ar
    33    18    19   ar
    34    19    14   ar
    35     8     1    1
    36     9     3    1
    37    35    29   ar
    38    24    25    1
@<TRIPOS>MOLECULE
*****
 35 38 0 0 0
SMALL
GASTEIGER

@<TRIPOS>ATOM
      1 N         144.3082  141.7058  163.6898 N.3     1  UNL1       -0.2684
      2 C         143.7909  141.7745  162.2836 C.3     1  UNL1        0.1035
      3 C         142.8099  142.8412  161.8966 C.3     1  UNL1        0.1470
      4 C         141.8288  143.9079  161.5096 C.3     1  UNL1        0.1035
      5 N         141.3652  144.9059  162.5290 N.3     1  UNL1       -0.2673
      6 C         141.8826  144.8372  163.9353 C.3     1  UNL1        0.1035
      7 C         142.8636  143.7705  164.3222 C.3     1  UNL1        0.1470
      8 C         143.8446  142.7038  164.7091 C.3     1  UNL1        0.1035
      9 O         142.3462  143.8392  162.9160 O.3     1  UNL1       -0.3530
     10 C         145.2893  140.6391  164.0768 C.3     1  UNL1        0.0761
     11 C         144.7982  139.3288  164.6171 C.3     1  UNL1        0.0646
     12 C         143.3268  139.0916  164.7865 C.3     1  UNL1        0.2068
     13 O         142.7590  138.8470  166.1532 O.3     1  UNL1       -0.4754
     14 C         141.1588  142.2870  168.5732 C.ar    1  UNL1        0.0686
     15 C         140.6612  142.0566  167.1769 C.ar    1  UNL1        0.0134
     16 C         141.1946  140.9100  166.3703 C.ar    1  UNL1        0.0376
     17 C         142.2256  139.9937  166.9598 C.ar    1  UNL1        0.1386
     18 C         142.7231  140.2240  168.3561 C.ar    1  UNL1        0.0376
     19 C         142.1897  141.3707  169.1627 C.ar    1  UNL1        0.0134
     20 N         140.0920  144.5803  170.1865 N.1     1  UNL1       -0.1908
     21 C         140.6254  143.4336  169.3798 C.1     1  UNL1        0.1004
     22 C         140.3842  145.9726  162.1420 C.3     1  UNL1        0.0913
     23 C         138.9914  145.5971  161.7304 C.3     1  UNL1        0.1087
     24 N         138.0809  144.9103  162.7046 N.3     1  UNL1       -0.1780
     25 H         137.1279  145.0610  162.3736 H       1  UNL1        0.1488
     26 S         138.2243  143.4385  162.9558 S.O2    1  UNL1        0.0603
     27 O         138.4866  143.7117  164.4071 O.2     1  UNL1       -0.1530
     28 O         137.9621  143.1653  161.5044 O.2     1  UNL1       -0.1530
     29 C         138.3678  141.9666  163.2069 C.ar    1  UNL1        0.1242
     30 C         138.9020  141.0705  162.1291 C.ar    1  UNL1        0.0200
     31 C         139.0455  139.5987  162.3802 C.ar    1  UNL1        0.0037
     32 C         138.6548  139.0229  163.7090 C.ar    1  UNL1        0.0297
     33 C         138.1206  139.9191  164.7868 C.ar    1  UNL1        0.1415
     34 F         137.7299  139.3433  166.1157 F       1  UNL1       -0.2041
     35 C         137.9771  141.3909  164.5357 C.ar    1  UNL1        0.0495
@<TRIPOS>BOND
     1    20    21    3
     2    21    14    1
     3    14    15   ar
     4    15    16   ar
     5    16    17   ar
     6    17    13    1
     7    13    12    1
     8    12    11    1
     9    11    10    1
    10    10     1    1
    11     1     2    1
    12     2     3    1
    13     3     4    1
    14     4     5    1
    15     5    22    1
    16    22    23    1
    17    23    24    1
    18    24    26    1
    19    26    27    2
    20    26    28    2
    21    26    29    1
    22    29    30   ar
    23    30    31   ar
    24    31    32   ar
    25    32    33   ar
    26    33    34    1
    27    33    35   ar
    28     5     6    1
    29     6     7    1
    30     7     8    1
    31     7     9    1
    32    17    18   ar
    33    18    19   ar
    34    19    14   ar
    35     8     1    1
    36     9     3    1
    37    35    29   ar
    38    24    25    1
@<TRIPOS>MOLECULE
*****
 35 38 0 0 0
SMALL
GASTEIGER

@<TRIPOS>ATOM
      1 N         138.9039  139.0999  161.5334 N.3     1  UNL1       -0.2684
      2 C         140.1069  139.1739  160.6405 C.3     1  UNL1        0.1035
      3 C         140.4185  140.4439  159.9057 C.3     1  UNL1        0.1470
      4 C         140.7301  141.7139  159.1708 C.3     1  UNL1        0.1035
      5 N         139.8387  142.9099  159.3289 N.3     1  UNL1       -0.2673
      6 C         138.6357  142.8359  160.2218 C.3     1  UNL1        0.1035
      7 C         138.3241  141.5659  160.9567 C.3     1  UNL1        0.1470
      8 C         138.0125  140.2959  161.6915 C.3     1  UNL1        0.1035
      9 O         139.5271  141.6399  160.0638 O.3     1  UNL1       -0.3530
     10 C         138.5923  137.8299  162.2683 C.3     1  UNL1        0.0761
     11 C         138.9437  137.6981  163.7205 C.3     1  UNL1        0.0646
     12 C         140.3822  137.6772  164.1453 C.3     1  UNL1        0.2068
     13 O         141.0567  138.9471  164.5723 O.3     1  UNL1       -0.4754
     14 C         140.9005  140.2392  168.8799 C.ar    1  UNL1        0.0686
     15 C         142.1795  139.7104  168.3014 C.ar    1  UNL1        0.0134
     16 C         142.2315  139.2797  166.8656 C.ar    1  UNL1        0.0376
     17 C         141.0046  139.3778  166.0081 C.ar    1  UNL1        0.1386
     18 C         139.7256  139.9065  166.5866 C.ar    1  UNL1        0.0376
     19 C         139.6736  140.3372  168.0226 C.ar    1  UNL1        0.0134
     20 N         140.7964  141.1006  171.7518 N.1     1  UNL1       -0.1908
     21 C         140.8484  140.6698  170.3158 C.1     1  UNL1        0.1004
     22 C         140.1503  144.1799  158.5941 C.3     1  UNL1        0.0913
     23 C         140.3918  145.4483  159.3576 C.3     1  UNL1        0.1087
     24 N         141.3940  145.4728  160.4734 N.3     1  UNL1       -0.1780
     25 H         141.7048  146.4396  160.5688 H       1  UNL1        0.1488
     26 S         141.0018  145.0067  161.8441 S.O2    1  UNL1        0.0603
     27 O         142.0788  143.9637  161.7976 O.2     1  UNL1       -0.1530
     28 O         139.9249  146.0497  161.8906 O.2     1  UNL1       -0.1530
     29 C         140.6096  144.5406  163.2149 C.ar    1  UNL1        0.1242
     30 C         139.2593  144.8887  163.7676 C.ar    1  UNL1        0.0200
     31 C         138.8670  144.4227  165.1383 C.ar    1  UNL1        0.0037
     32 C         139.8251  143.6086  165.9563 C.ar    1  UNL1        0.0297
     33 C         141.1754  143.2604  165.4036 C.ar    1  UNL1        0.1415
     34 F         142.1335  142.4462  166.2217 F       1  UNL1       -0.2041
     35 C         141.5677  143.7265  164.0329 C.ar    1  UNL1        0.0495
@<TRIPOS>BOND
     1    20    21    3
     2    21    14    1
     3    14    15   ar
     4    15    16   ar
     5    16    17   ar
     6    17    13    1
     7    13    12    1
     8    12    11    1
     9    11    10    1
    10    10     1    1
    11     1     2    1
    12     2     3    1
    13     3     4    1
    14     4     5    1
    15     5    22    1
    16    22    23    1
    17    23    24    1
    18    24    26    1
    19    26    27    2
    20    26    28    2
    21    26    29    1
    22    29    30   ar
    23    30    31   ar
    24    31    32   ar
    25    32    33   ar
    26    33    34    1
    27    33    35   ar
    28     5     6    1
    29     6     7    1
    30     7     8    1
    31     7     9    1
    32    17    18   ar
    33    18    19   ar
    34    19    14   ar
    35     8     1    1
    36     9     3    1
    37    35    29   ar
    38    24    25    1
@<TRIPOS>MOLECULE
*****
 35 38 0 0 0
SMALL
GASTEIGER

@<TRIPOS>ATOM
      1 N         139.1244  139.0482  162.5787 N.3     1  UNL1       -0.2684
      2 C         138.4035  140.3009  162.9799 C.3     1  UNL1        0.1035
      3 C         138.6089  141.5664  162.2014 C.3     1  UNL1        0.1470
      4 C         138.8143  142.8321  161.4229 C.3     1  UNL1        0.1035
      5 N         139.7406  142.8449  160.2431 N.3     1  UNL1       -0.2673
      6 C         140.4615  141.5921  159.8419 C.3     1  UNL1        0.1035
      7 C         140.2561  140.3266  160.6204 C.3     1  UNL1        0.1470
      8 C         140.0507  139.0610  161.3989 C.3     1  UNL1        0.1035
      9 O         139.5352  141.5793  161.0217 O.3     1  UNL1       -0.3530
     10 C         138.9190  137.7825  163.3572 C.3     1  UNL1        0.0761
     11 C         139.6509  137.5695  164.6491 C.3     1  UNL1        0.0646
     12 C         141.1500  137.5202  164.6624 C.3     1  UNL1        0.2068
     13 O         141.9429  138.7913  164.5879 O.3     1  UNL1       -0.4754
     14 C         141.9554  141.6427  168.0692 C.ar    1  UNL1        0.0686
     15 C         141.2708  142.0237  166.7901 C.ar    1  UNL1        0.0134
     16 C         141.2666  141.0733  165.6297 C.ar    1  UNL1        0.0376
     17 C         141.9471  139.7417  165.7483 C.ar    1  UNL1        0.1386
     18 C         142.6317  139.3607  167.0275 C.ar    1  UNL1        0.0376
     19 C         142.6358  140.3112  168.1879 C.ar    1  UNL1        0.0134
     20 N         141.9637  143.5435  170.3902 N.1     1  UNL1       -0.1908
     21 C         141.9596  142.5931  169.2296 C.1     1  UNL1        0.1004
     22 C         139.9460  144.1105  159.4646 C.3     1  UNL1        0.0913
     23 C         141.1738  144.9413  159.6940 C.3     1  UNL1        0.1087
     24 N         141.5319  145.3830  161.0820 N.3     1  UNL1       -0.1780
     25 H         140.6542  145.5653  161.5686 H       1  UNL1        0.1488
     26 S         142.3407  144.4844  161.9698 S.O2    1  UNL1        0.0603
     27 O         141.6002  145.0012  163.1675 O.2     1  UNL1       -0.1530
     28 O         143.0812  143.9676  160.7721 O.2     1  UNL1       -0.1530
     29 C         143.1496  143.5857  162.8576 C.ar    1  UNL1        0.1242
     30 C         143.6262  144.0802  164.1911 C.ar    1  UNL1        0.0200
     31 C         144.4350  143.1816  165.0789 C.ar    1  UNL1        0.0037
     32 C         144.7673  141.7885  164.6331 C.ar    1  UNL1        0.0297
     33 C         144.2907  141.2939  163.2996 C.ar    1  UNL1        0.1415
     34 F         144.6230  139.9007  162.8539 F       1  UNL1       -0.2041
     35 C         143.4818  142.1926  162.4118 C.ar    1  UNL1        0.0495
@<TRIPOS>BOND
     1    20    21    3
     2    21    14    1
     3    14    15   ar
     4    15    16   ar
     5    16    17   ar
     6    17    13    1
     7    13    12    1
     8    12    11    1
     9    11    10    1
    10    10     1    1
    11     1     2    1
    12     2     3    1
    13     3     4    1
    14     4     5    1
    15     5    22    1
    16    22    23    1
    17    23    24    1
    18    24    26    1
    19    26    27    2
    20    26    28    2
    21    26    29    1
    22    29    30   ar
    23    30    31   ar
    24    31    32   ar
    25    32    33   ar
    26    33    34    1
    27    33    35   ar
    28     5     6    1
    29     6     7    1
    30     7     8    1
    31     7     9    1
    32    17    18   ar
    33    18    19   ar
    34    19    14   ar
    35     8     1    1
    36     9     3    1
    37    35    29   ar
    38    24    25    1
