@<TRIPOS>MOLECULE
*****
 34 38 0 0 0
SMALL
GASTEIGER

@<TRIPOS>ATOM
      1 C         140.9358  140.3574  166.9323 C.2     1  UNL1        0.3293
      2 N         142.0370  140.7514  165.9931 N.2     1  UNL1       -0.0046
      3 C         143.0290  141.8010  166.3987 C.2     1  UNL1        0.3056
      4 C         142.9197  142.4565  167.7434 C.3     1  UNL1        0.1439
      5 C         141.8185  142.0625  168.6826 C.2     1  UNL1        0.0029
      6 C         141.7093  142.7180  170.0273 C.2     1  UNL1        0.0146
      7 C         140.6081  142.3240  170.9665 C.2     1  UNL1        0.0886
      8 N         139.6161  141.2744  170.5610 N.am    1  UNL1       -0.1739
      9 C         139.7254  140.6189  169.2162 C.2     1  UNL1        0.2759
     10 O         138.7334  139.5693  168.8107 O.2     1  UNL1       -0.2678
     11 C         140.8266  141.0129  168.2771 C.2     1  UNL1        0.1340
     12 N         139.9439  139.3078  166.5267 N.pl3   1  UNL1       -0.2134
     13 H         139.3302  138.9260  167.1952 H       1  UNL1        0.2928
     14 C         137.5837  139.8133  160.5139 C.3     1  UNL1        0.0327
     15 C         137.9497  139.9291  161.9639 C.2     1  UNL1       -0.0015
     16 C         137.4023  140.9339  162.9339 C.2     1  UNL1        0.0944
     17 N         138.0417  140.6863  164.2680 N.2     1  UNL1       -0.2442
     18 C         138.9843  139.5285  164.1225 C.2     1  UNL1        0.1052
     19 C         139.8870  138.8399  165.1027 C.3     1  UNL1        0.2198
     20 C         140.7329  137.6833  164.6589 C.2     1  UNL1        0.0258
     21 C         140.6760  137.2154  163.2349 C.2     1  UNL1       -0.0002
     22 C         139.7733  137.9041  162.2547 C.2     1  UNL1        0.0009
     23 C         138.9274  139.0606  162.6985 C.2     1  UNL1        0.0153
     24 N         144.1302  142.1950  165.4594 N.pl3   1  UNL1       -0.2243
     25 H         145.0697  142.1224  165.7444 H       1  UNL1        0.2918
     26 C         143.7999  142.6996  164.0860 C.3     1  UNL1        0.1704
     27 C         142.4890  143.3835  163.8334 C.3     1  UNL1        0.0478
     28 C         142.1587  143.8881  162.4600 C.3     1  UNL1        0.0042
     29 C         143.1393  143.7087  161.3391 C.3     1  UNL1        0.0016
     30 C         144.4502  143.0248  161.5917 C.3     1  UNL1        0.0196
     31 C         144.7805  142.5202  162.9652 C.3     1  UNL1        0.0939
     32 N         146.0914  141.8363  163.2178 N.3     1  UNL1       -0.3190
     33 H         146.6292  141.8017  162.3518 H       1  UNL1        0.1189
     34 H         145.9211  140.8872  163.5505 H       1  UNL1        0.1189
@<TRIPOS>BOND
     1    14    15    1
     2    15    16    2
     3    16    17    1
     4    17    18    2
     5    18    19    1
     6    19    12    1
     7    12     1    1
     8     1     2    1
     9     2     3    2
    10     3    24    1
    11    26    24    1
    12    26    27    1
    13    27    28    1
    14    28    29    1
    15    29    30    1
    16    30    31    1
    17    31    32    1
    18     3     4    1
    19     4     5    1
    20     5     6    2
    21     6     7    1
    22     7     8    2
    23     8     9    1
    24     9    10    2
    25     9    11    1
    26    19    20    1
    27    20    21    2
    28    21    22    1
    29    22    23    2
    30    23    15    1
    31    23    18    1
    32    11     1    2
    33    31    26    1
    34    11     5    1
    35    12    13    1
    36    24    25    1
    37    32    33    1
    38    32    34    1
@<TRIPOS>MOLECULE
*****
 34 38 0 0 0
SMALL
GASTEIGER

@<TRIPOS>ATOM
      1 C         141.4510  141.8576  166.3834 C.2     1  UNL1        0.3293
      2 N         140.2733  141.4068  165.5712 N.2     1  UNL1       -0.0046
      3 C         139.2618  140.4749  166.1700 C.2     1  UNL1        0.3056
      4 C         139.4280  139.9940  167.5810 C.3     1  UNL1        0.1439
      5 C         140.6057  140.4448  168.3933 C.2     1  UNL1        0.0029
      6 C         140.7719  139.9639  169.8043 C.2     1  UNL1        0.0146
      7 C         141.9496  140.4147  170.6166 C.2     1  UNL1        0.0886
      8 N         142.9611  141.3466  170.0178 N.am    1  UNL1       -0.1739
      9 C         142.7949  141.8275  168.6067 C.2     1  UNL1        0.2759
     10 O         143.8064  142.7594  168.0079 O.2     1  UNL1       -0.2678
     11 C         141.6172  141.3767  167.7945 C.2     1  UNL1        0.1340
     12 N         142.4625  142.7895  165.7846 N.pl3   1  UNL1       -0.2134
     13 H         142.6076  143.6789  166.1809 H       1  UNL1        0.2928
     14 C         143.5551  142.9783  159.4009 C.3     1  UNL1        0.0327
     15 C         143.0766  143.1221  160.8152 C.2     1  UNL1       -0.0015
     16 C         141.9176  143.9570  161.2733 C.2     1  UNL1        0.0944
     17 N         141.7977  143.8072  162.7609 N.2     1  UNL1       -0.2442
     18 C         142.8826  142.8798  163.2223 C.2     1  UNL1        0.1052
     19 C         143.2529  142.3661  164.5821 C.3     1  UNL1        0.2198
     20 C         144.4136  141.4290  164.7394 C.2     1  UNL1        0.0258
     21 C         145.2039  141.0056  163.5369 C.2     1  UNL1       -0.0002
     22 C         144.8337  141.5193  162.1771 C.2     1  UNL1        0.0009
     23 C         143.6730  142.4563  162.0198 C.2     1  UNL1        0.0153
     24 N         138.0841  140.0241  165.3577 N.pl3   1  UNL1       -0.2243
     25 H         137.1756  140.0851  165.7321 H       1  UNL1        0.2918
     26 C         138.2906  139.4803  163.9751 C.3     1  UNL1        0.1704
     27 C         139.1417  138.2627  163.7674 C.3     1  UNL1        0.0478
     28 C         139.3482  137.7189  162.3849 C.3     1  UNL1        0.0042
     29 C         138.7036  138.3927  161.2099 C.3     1  UNL1        0.0016
     30 C         137.8525  139.6103  161.4175 C.3     1  UNL1        0.0196
     31 C         137.6460  140.1541  162.8002 C.3     1  UNL1        0.0939
     32 N         136.7949  141.3717  163.0079 N.3     1  UNL1       -0.3190
     33 H         136.4398  141.6958  162.1083 H       1  UNL1        0.1189
     34 H         137.3543  142.1082  163.4380 H       1  UNL1        0.1189
@<TRIPOS>BOND
     1    14    15    1
     2    15    16    2
     3    16    17    1
     4    17    18    2
     5    18    19    1
     6    19    12    1
     7    12     1    1
     8     1     2    1
     9     2     3    2
    10     3    24    1
    11    26    24    1
    12    26    27    1
    13    27    28    1
    14    28    29    1
    15    29    30    1
    16    30    31    1
    17    31    32    1
    18     3     4    1
    19     4     5    1
    20     5     6    2
    21     6     7    1
    22     7     8    2
    23     8     9    1
    24     9    10    2
    25     9    11    1
    26    19    20    1
    27    20    21    2
    28    21    22    1
    29    22    23    2
    30    23    15    1
    31    23    18    1
    32    11     1    2
    33    31    26    1
    34    11     5    1
    35    12    13    1
    36    24    25    1
    37    32    33    1
    38    32    34    1
@<TRIPOS>MOLECULE
*****
 34 38 0 0 0
SMALL
GASTEIGER

@<TRIPOS>ATOM
      1 C         140.7367  139.4354  161.0205 C.2     1  UNL1        0.3293
      2 N         139.7195  140.4839  161.3608 N.2     1  UNL1       -0.0046
      3 C         139.4568  141.6115  160.4072 C.2     1  UNL1        0.3056
      4 C         140.2113  141.6907  159.1132 C.3     1  UNL1        0.1439
      5 C         141.2286  140.6421  158.7728 C.2     1  UNL1        0.0029
      6 C         141.9831  140.7213  157.4788 C.2     1  UNL1        0.0146
      7 C         143.0003  139.6728  157.1385 C.2     1  UNL1        0.0886
      8 N         143.2630  138.5452  158.0921 N.am    1  UNL1       -0.1739
      9 C         142.5085  138.4660  159.3861 C.2     1  UNL1        0.2759
     10 O         142.7713  137.3384  160.3397 O.2     1  UNL1       -0.2678
     11 C         141.4913  139.5145  159.7264 C.2     1  UNL1        0.1340
     12 N         140.9995  138.3078  161.9741 N.pl3   1  UNL1       -0.2134
     13 H         140.9172  137.3755  161.6686 H       1  UNL1        0.2928
     14 C         139.3966  139.9181  168.0419 C.3     1  UNL1        0.0327
     15 C         139.4725  139.5656  166.5859 C.2     1  UNL1       -0.0015
     16 C         138.3121  139.4695  165.6403 C.2     1  UNL1        0.0944
     17 N         138.8447  139.0918  164.2899 N.2     1  UNL1       -0.2442
     18 C         140.3343  138.9544  164.4009 C.2     1  UNL1        0.1052
     19 C         141.3874  138.6006  163.3931 C.3     1  UNL1        0.2198
     20 C         142.8287  138.5395  163.8045 C.2     1  UNL1        0.0258
     21 C         143.2167  138.8323  165.2235 C.2     1  UNL1       -0.0002
     22 C         142.1635  139.1862  166.2312 C.2     1  UNL1        0.0009
     23 C         140.7223  139.2473  165.8200 C.2     1  UNL1        0.0153
     24 N         138.4395  142.6600  160.7476 N.pl3   1  UNL1       -0.2243
     25 H         137.8044  142.9705  160.0624 H       1  UNL1        0.2918
     26 C         138.3899  143.2355  162.1319 C.3     1  UNL1        0.1704
     27 C         139.1328  144.5003  162.4454 C.3     1  UNL1        0.0478
     28 C         139.0832  145.0757  163.8297 C.3     1  UNL1        0.0042
     29 C         138.2907  144.3864  164.9006 C.3     1  UNL1        0.0016
     30 C         137.5477  143.1216  164.5870 C.3     1  UNL1        0.0196
     31 C         137.5974  142.5461  163.2026 C.3     1  UNL1        0.0939
     32 N         136.8544  141.2813  162.8891 N.3     1  UNL1       -0.3190
     33 H         136.3743  140.9525  163.7268 H       1  UNL1        0.1189
     34 H         137.5131  140.5695  162.5732 H       1  UNL1        0.1189
@<TRIPOS>BOND
     1    14    15    1
     2    15    16    2
     3    16    17    1
     4    17    18    2
     5    18    19    1
     6    19    12    1
     7    12     1    1
     8     1     2    1
     9     2     3    2
    10     3    24    1
    11    26    24    1
    12    26    27    1
    13    27    28    1
    14    28    29    1
    15    29    30    1
    16    30    31    1
    17    31    32    1
    18     3     4    1
    19     4     5    1
    20     5     6    2
    21     6     7    1
    22     7     8    2
    23     8     9    1
    24     9    10    2
    25     9    11    1
    26    19    20    1
    27    20    21    2
    28    21    22    1
    29    22    23    2
    30    23    15    1
    31    23    18    1
    32    11     1    2
    33    31    26    1
    34    11     5    1
    35    12    13    1
    36    24    25    1
    37    32    33    1
    38    32    34    1
@<TRIPOS>MOLECULE
*****
 34 38 0 0 0
SMALL
GASTEIGER

@<TRIPOS>ATOM
      1 C         141.8689  140.8288  166.3884 C.2     1  UNL1        0.3293
      2 N         141.1773  139.8878  165.4470 N.2     1  UNL1       -0.0046
      3 C         139.9022  139.2150  165.8612 C.2     1  UNL1        0.3056
      4 C         139.3186  139.4833  167.2167 C.3     1  UNL1        0.1439
      5 C         140.0102  140.4243  168.1581 C.2     1  UNL1        0.0029
      6 C         139.4266  140.6926  169.5136 C.2     1  UNL1        0.0146
      7 C         140.1182  141.6336  170.4550 C.2     1  UNL1        0.0886
      8 N         141.3933  142.3063  170.0409 N.am    1  UNL1       -0.1739
      9 C         141.9769  142.0381  168.6853 C.2     1  UNL1        0.2759
     10 O         143.2520  142.7108  168.2712 O.2     1  UNL1       -0.2678
     11 C         141.2853  141.0971  167.7440 C.2     1  UNL1        0.1340
     12 N         143.1440  141.5015  165.9742 N.pl3   1  UNL1       -0.2134
     13 H         143.9727  141.3401  166.4806 H       1  UNL1        0.2928
     14 C         140.2719  145.9854  162.2829 C.3     1  UNL1        0.0327
     15 C         140.6842  144.9621  163.2991 C.2     1  UNL1       -0.0015
     16 C         139.8670  144.5036  164.4704 C.2     1  UNL1        0.0944
     17 N         140.6639  143.4757  165.2176 N.2     1  UNL1       -0.2442
     18 C         141.9737  143.2989  164.5081 C.2     1  UNL1        0.1052
     19 C         143.1565  142.4201  164.7886 C.3     1  UNL1        0.2198
     20 C         144.3519  142.4600  163.8832 C.2     1  UNL1        0.0258
     21 C         144.3644  143.3787  162.6975 C.2     1  UNL1       -0.0002
     22 C         143.1816  144.2574  162.4171 C.2     1  UNL1        0.0009
     23 C         141.9862  144.2176  163.3223 C.2     1  UNL1        0.0153
     24 N         139.2106  138.2740  164.9197 N.pl3   1  UNL1       -0.2243
     25 H         138.8104  137.4419  165.2612 H       1  UNL1        0.2918
     26 C         139.1289  138.6008  163.4580 C.3     1  UNL1        0.1704
     27 C         138.1213  139.5979  162.9677 C.3     1  UNL1        0.0478
     28 C         138.0396  139.9248  161.5060 C.3     1  UNL1        0.0042
     29 C         138.9655  139.2544  160.5347 C.3     1  UNL1        0.0016
     30 C         139.9731  138.2573  161.0251 C.3     1  UNL1        0.0196
     31 C         140.0548  137.9305  162.4868 C.3     1  UNL1        0.0939
     32 N         141.0624  136.9334  162.9772 N.3     1  UNL1       -0.3190
     33 H         141.6032  136.5802  162.1878 H       1  UNL1        0.1189
     34 H         140.5801  136.1586  163.4327 H       1  UNL1        0.1189
@<TRIPOS>BOND
     1    14    15    1
     2    15    16    2
     3    16    17    1
     4    17    18    2
     5    18    19    1
     6    19    12    1
     7    12     1    1
     8     1     2    1
     9     2     3    2
    10     3    24    1
    11    26    24    1
    12    26    27    1
    13    27    28    1
    14    28    29    1
    15    29    30    1
    16    30    31    1
    17    31    32    1
    18     3     4    1
    19     4     5    1
    20     5     6    2
    21     6     7    1
    22     7     8    2
    23     8     9    1
    24     9    10    2
    25     9    11    1
    26    19    20    1
    27    20    21    2
    28    21    22    1
    29    22    23    2
    30    23    15    1
    31    23    18    1
    32    11     1    2
    33    31    26    1
    34    11     5    1
    35    12    13    1
    36    24    25    1
    37    32    33    1
    38    32    34    1
@<TRIPOS>MOLECULE
*****
 34 38 0 0 0
SMALL
GASTEIGER

@<TRIPOS>ATOM
      1 C         141.6923  140.1211  165.2462 C.2     1  UNL1        0.3293
      2 N         142.5507  139.5802  164.1415 N.2     1  UNL1       -0.0046
      3 C         142.1623  138.3111  163.4427 C.2     1  UNL1        0.3056
      4 C         140.9155  137.5827  163.8487 C.3     1  UNL1        0.1439
      5 C         140.0569  138.1236  164.9535 C.2     1  UNL1        0.0029
      6 C         138.8101  137.3952  165.3594 C.2     1  UNL1        0.0146
      7 C         137.9517  137.9361  166.4642 C.2     1  UNL1        0.0886
      8 N         138.3400  139.2053  167.1629 N.am    1  UNL1       -0.1739
      9 C         139.5869  139.9336  166.7570 C.2     1  UNL1        0.2759
     10 O         139.9753  141.2028  167.4557 O.2     1  UNL1       -0.2678
     11 C         140.4453  139.3927  165.6522 C.2     1  UNL1        0.1340
     12 N         142.0806  141.3903  165.9450 N.pl3   1  UNL1       -0.2134
     13 H         142.1675  141.4056  166.9255 H       1  UNL1        0.2928
     14 C         139.9711  146.1630  162.1042 C.3     1  UNL1        0.0327
     15 C         140.1741  144.9653  162.9841 C.2     1  UNL1       -0.0015
     16 C         139.1176  143.9818  163.3922 C.2     1  UNL1        0.0944
     17 N         139.7598  142.9495  164.2707 N.2     1  UNL1       -0.2442
     18 C         141.2132  143.2950  164.4056 C.2     1  UNL1        0.1052
     19 C         142.3366  142.6361  165.1498 C.3     1  UNL1        0.2198
     20 C         143.7161  143.2232  165.0989 C.2     1  UNL1        0.0258
     21 C         143.9721  144.4690  164.3037 C.2     1  UNL1       -0.0002
     22 C         142.8487  145.1279  163.5595 C.2     1  UNL1        0.0009
     23 C         141.4693  144.5409  163.6105 C.2     1  UNL1        0.0153
     24 N         143.0208  137.7702  162.3379 N.pl3   1  UNL1       -0.2243
     25 H         143.5519  136.9538  162.4819 H       1  UNL1        0.2918
     26 C         143.0702  138.4732  161.0138 C.3     1  UNL1        0.1704
     27 C         142.2407  137.9739  159.8681 C.3     1  UNL1        0.0478
     28 C         142.2901  138.6769  158.5440 C.3     1  UNL1        0.0042
     29 C         143.1690  139.8793  158.3655 C.3     1  UNL1        0.0016
     30 C         143.9985  140.3787  159.5112 C.3     1  UNL1        0.0196
     31 C         143.9491  139.6756  160.8354 C.3     1  UNL1        0.0939
     32 N         144.7785  140.1749  161.9811 N.3     1  UNL1       -0.3190
     33 H         145.3101  140.9934  161.6846 H       1  UNL1        0.1189
     34 H         145.4216  139.4419  162.2801 H       1  UNL1        0.1189
@<TRIPOS>BOND
     1    14    15    1
     2    15    16    2
     3    16    17    1
     4    17    18    2
     5    18    19    1
     6    19    12    1
     7    12     1    1
     8     1     2    1
     9     2     3    2
    10     3    24    1
    11    26    24    1
    12    26    27    1
    13    27    28    1
    14    28    29    1
    15    29    30    1
    16    30    31    1
    17    31    32    1
    18     3     4    1
    19     4     5    1
    20     5     6    2
    21     6     7    1
    22     7     8    2
    23     8     9    1
    24     9    10    2
    25     9    11    1
    26    19    20    1
    27    20    21    2
    28    21    22    1
    29    22    23    2
    30    23    15    1
    31    23    18    1
    32    11     1    2
    33    31    26    1
    34    11     5    1
    35    12    13    1
    36    24    25    1
    37    32    33    1
    38    32    34    1
@<TRIPOS>MOLECULE
*****
 34 38 0 0 0
SMALL
GASTEIGER

@<TRIPOS>ATOM
      1 C         140.6473  141.7763  166.9219 C.2     1  UNL1        0.3293
      2 N         140.9521  140.6901  165.9333 N.2     1  UNL1       -0.0046
      3 C         141.7969  139.5198  166.3415 C.2     1  UNL1        0.3056
      4 C         142.3371  139.4357  167.7384 C.3     1  UNL1        0.1439
      5 C         142.0323  140.5219  168.7270 C.2     1  UNL1        0.0029
      6 C         142.5724  140.4378  170.1239 C.2     1  UNL1        0.0146
      7 C         142.2677  141.5239  171.1124 C.2     1  UNL1        0.0886
      8 N         141.4228  142.6942  170.7042 N.am    1  UNL1       -0.1739
      9 C         140.8827  142.7783  169.3074 C.2     1  UNL1        0.2759
     10 O         140.0378  143.9486  168.8992 O.2     1  UNL1       -0.2678
     11 C         141.1874  141.6922  168.3188 C.2     1  UNL1        0.1340
     12 N         139.8024  142.9465  166.5137 N.pl3   1  UNL1       -0.2134
     13 H         139.5224  143.6096  167.1853 H       1  UNL1        0.2928
     14 C         140.9603  145.0718  160.5034 C.3     1  UNL1        0.0327
     15 C         140.9612  144.6982  161.9561 C.2     1  UNL1       -0.0015
     16 C         142.0545  144.9899  162.9408 C.2     1  UNL1        0.0944
     17 N         141.6380  144.4393  164.2725 N.2     1  UNL1       -0.2442
     18 C         140.2873  143.8072  164.1107 C.2     1  UNL1        0.1052
     19 C         139.3842  143.1065  165.0821 C.3     1  UNL1        0.2198
     20 C         138.0629  142.5659  164.6218 C.2     1  UNL1        0.0258
     21 C         137.6446  142.7259  163.1902 C.2     1  UNL1       -0.0002
     22 C         138.5477  143.4265  162.2189 C.2     1  UNL1        0.0009
     23 C         139.8690  143.9672  162.6791 C.2     1  UNL1        0.0153
     24 N         142.1017  138.4336  165.3529 N.pl3   1  UNL1       -0.2243
     25 H         141.8495  137.5028  165.5509 H       1  UNL1        0.2918
     26 C         142.7906  138.7657  164.0625 C.3     1  UNL1        0.1704
     27 C         143.8582  139.8190  164.0317 C.3     1  UNL1        0.0478
     28 C         144.5471  140.1510  162.7413 C.3     1  UNL1        0.0042
     29 C         144.1685  139.4298  161.4817 C.3     1  UNL1        0.0016
     30 C         143.1010  138.3765  161.5125 C.3     1  UNL1        0.0196
     31 C         142.4120  138.0445  162.8030 C.3     1  UNL1        0.0939
     32 N         141.3445  136.9912  162.8338 N.3     1  UNL1       -0.3190
     33 H         141.2174  136.6084  161.8970 H       1  UNL1        0.1189
     34 H         140.4686  137.4042  163.1541 H       1  UNL1        0.1189
@<TRIPOS>BOND
     1    14    15    1
     2    15    16    2
     3    16    17    1
     4    17    18    2
     5    18    19    1
     6    19    12    1
     7    12     1    1
     8     1     2    1
     9     2     3    2
    10     3    24    1
    11    26    24    1
    12    26    27    1
    13    27    28    1
    14    28    29    1
    15    29    30    1
    16    30    31    1
    17    31    32    1
    18     3     4    1
    19     4     5    1
    20     5     6    2
    21     6     7    1
    22     7     8    2
    23     8     9    1
    24     9    10    2
    25     9    11    1
    26    19    20    1
    27    20    21    2
    28    21    22    1
    29    22    23    2
    30    23    15    1
    31    23    18    1
    32    11     1    2
    33    31    26    1
    34    11     5    1
    35    12    13    1
    36    24    25    1
    37    32    33    1
    38    32    34    1
@<TRIPOS>MOLECULE
*****
 34 38 0 0 0
SMALL
GASTEIGER

@<TRIPOS>ATOM
      1 C         140.3490  141.3952  159.5798 C.2     1  UNL1        0.3293
      2 N         141.5431  142.1500  160.0841 N.2     1  UNL1       -0.0046
      3 C         142.9252  141.7064  159.7059 C.2     1  UNL1        0.3056
      4 C         143.1132  140.5082  158.8235 C.3     1  UNL1        0.1439
      5 C         141.9191  139.7533  158.3191 C.2     1  UNL1        0.0029
      6 C         142.1070  138.5551  157.4367 C.2     1  UNL1        0.0146
      7 C         140.9129  137.8003  156.9324 C.2     1  UNL1        0.0886
      8 N         139.5308  138.2438  157.3106 N.am    1  UNL1       -0.1739
      9 C         139.3428  139.4421  158.1930 C.2     1  UNL1        0.2759
     10 O         137.9607  139.8856  158.5712 O.2     1  UNL1       -0.2678
     11 C         140.5369  140.1969  158.6973 C.2     1  UNL1        0.1340
     12 N         138.9669  141.8387  159.9580 N.pl3   1  UNL1       -0.2134
     13 H         138.3238  142.0960  159.2583 H       1  UNL1        0.2928
     14 C         138.5006  145.0395  165.5721 C.3     1  UNL1        0.0327
     15 C         138.7311  144.5534  164.1719 C.2     1  UNL1       -0.0015
     16 C         139.3459  145.3430  163.0545 C.2     1  UNL1        0.0944
     17 N         139.3821  144.4701  161.8353 N.2     1  UNL1       -0.2442
     18 C         138.7896  143.1409  162.1991 C.2     1  UNL1        0.1052
     19 C         138.5646  141.8903  161.4021 C.3     1  UNL1        0.2198
     20 C         137.9371  140.6912  162.0491 C.2     1  UNL1        0.0258
     21 C         137.5348  140.7428  163.4932 C.2     1  UNL1       -0.0002
     22 C         137.7599  141.9934  164.2903 C.2     1  UNL1        0.0009
     23 C         138.3873  143.1924  163.6433 C.2     1  UNL1        0.0153
     24 N         144.1194  142.4613  160.2102 N.pl3   1  UNL1       -0.2243
     25 H         144.7836  142.8134  159.5746 H       1  UNL1        0.2918
     26 C         144.3015  142.6796  161.6830 C.3     1  UNL1        0.1704
     27 C         145.2015  141.7735  162.4699 C.3     1  UNL1        0.0478
     28 C         145.3836  141.9918  163.9427 C.3     1  UNL1        0.0042
     29 C         144.6658  143.1162  164.6286 C.3     1  UNL1        0.0016
     30 C         143.7658  144.0223  163.8418 C.3     1  UNL1        0.0196
     31 C         143.5837  143.8039  162.3689 C.3     1  UNL1        0.0939
     32 N         142.6838  144.7100  161.5820 N.3     1  UNL1       -0.3190
     33 H         142.2815  145.4124  162.2027 H       1  UNL1        0.1189
     34 H         141.9352  144.1616  161.1586 H       1  UNL1        0.1189
@<TRIPOS>BOND
     1    14    15    1
     2    15    16    2
     3    16    17    1
     4    17    18    2
     5    18    19    1
     6    19    12    1
     7    12     1    1
     8     1     2    1
     9     2     3    2
    10     3    24    1
    11    26    24    1
    12    26    27    1
    13    27    28    1
    14    28    29    1
    15    29    30    1
    16    30    31    1
    17    31    32    1
    18     3     4    1
    19     4     5    1
    20     5     6    2
    21     6     7    1
    22     7     8    2
    23     8     9    1
    24     9    10    2
    25     9    11    1
    26    19    20    1
    27    20    21    2
    28    21    22    1
    29    22    23    2
    30    23    15    1
    31    23    18    1
    32    11     1    2
    33    31    26    1
    34    11     5    1
    35    12    13    1
    36    24    25    1
    37    32    33    1
    38    32    34    1
@<TRIPOS>MOLECULE
*****
 34 38 0 0 0
SMALL
GASTEIGER

@<TRIPOS>ATOM
      1 C         140.2282  141.5061  159.8590 C.2     1  UNL1        0.3293
      2 N         141.4088  142.3038  160.3278 N.2     1  UNL1       -0.0046
      3 C         142.7946  141.9072  159.9128 C.2     1  UNL1        0.3056
      4 C         142.9998  140.7128  159.0289 C.3     1  UNL1        0.1439
      5 C         141.8192  139.9150  158.5600 C.2     1  UNL1        0.0029
      6 C         142.0245  138.7207  157.6761 C.2     1  UNL1        0.0146
      7 C         140.8439  137.9230  157.2072 C.2     1  UNL1        0.0886
      8 N         139.4581  138.3196  157.6223 N.am    1  UNL1       -0.1739
      9 C         139.2529  139.5140  158.5062 C.2     1  UNL1        0.2759
     10 O         137.8671  139.9106  158.9212 O.2     1  UNL1       -0.2678
     11 C         140.4334  140.3117  158.9750 C.2     1  UNL1        0.1340
     12 N         138.8425  141.9028  160.2740 N.pl3   1  UNL1       -0.2134
     13 H         138.1554  142.0784  159.5912 H       1  UNL1        0.2928
     14 C         138.0933  139.2680  166.1458 C.3     1  UNL1        0.0327
     15 C         138.3393  139.5987  164.7036 C.2     1  UNL1       -0.0015
     16 C         138.7588  138.6317  163.6364 C.2     1  UNL1        0.0944
     17 N         138.8877  139.3898  162.3486 N.2     1  UNL1       -0.2442
     18 C         138.5480  140.8254  162.6198 C.2     1  UNL1        0.1052
     19 C         138.5035  142.0318  161.7295 C.3     1  UNL1        0.2198
     20 C         138.1200  143.3674  162.2947 C.2     1  UNL1        0.0258
     21 C         137.7811  143.4964  163.7502 C.2     1  UNL1       -0.0002
     22 C         137.8256  142.2900  164.6405 C.2     1  UNL1        0.0009
     23 C         138.2090  140.9546  164.0753 C.2     1  UNL1        0.0153
     24 N         143.9752  142.7050  160.3817 N.pl3   1  UNL1       -0.2243
     25 H         144.5710  143.1343  159.7260 H       1  UNL1        0.2918
     26 C         144.2480  142.8487  161.8496 C.3     1  UNL1        0.1704
     27 C         145.1632  141.8817  162.5406 C.3     1  UNL1        0.0478
     28 C         145.4360  142.0254  164.0085 C.3     1  UNL1        0.0042
     29 C         144.7936  143.1361  164.7856 C.3     1  UNL1        0.0016
     30 C         143.8784  144.1030  164.0946 C.3     1  UNL1        0.0196
     31 C         143.6056  143.9593  162.6266 C.3     1  UNL1        0.0939
     32 N         142.6903  144.9262  161.9357 N.3     1  UNL1       -0.3190
     33 H         142.3461  145.6097  162.6101 H       1  UNL1        0.1189
     34 H         141.9022  144.4196  161.5326 H       1  UNL1        0.1189
@<TRIPOS>BOND
     1    14    15    1
     2    15    16    2
     3    16    17    1
     4    17    18    2
     5    18    19    1
     6    19    12    1
     7    12     1    1
     8     1     2    1
     9     2     3    2
    10     3    24    1
    11    26    24    1
    12    26    27    1
    13    27    28    1
    14    28    29    1
    15    29    30    1
    16    30    31    1
    17    31    32    1
    18     3     4    1
    19     4     5    1
    20     5     6    2
    21     6     7    1
    22     7     8    2
    23     8     9    1
    24     9    10    2
    25     9    11    1
    26    19    20    1
    27    20    21    2
    28    21    22    1
    29    22    23    2
    30    23    15    1
    31    23    18    1
    32    11     1    2
    33    31    26    1
    34    11     5    1
    35    12    13    1
    36    24    25    1
    37    32    33    1
    38    32    34    1
@<TRIPOS>MOLECULE
*****
 34 38 0 0 0
SMALL
GASTEIGER

@<TRIPOS>ATOM
      1 C         141.2416  140.3358  159.9935 C.2     1  UNL1        0.3293
      2 N         140.1998  141.3061  160.4658 N.2     1  UNL1       -0.0046
      3 C         140.3037  142.7565  160.0976 C.2     1  UNL1        0.3056
      4 C         141.4496  143.2366  159.2571 C.3     1  UNL1        0.1439
      5 C         142.4915  142.2664  158.7848 C.2     1  UNL1        0.0029
      6 C         143.6373  142.7465  157.9443 C.2     1  UNL1        0.0146
      7 C         144.6792  141.7763  157.4720 C.2     1  UNL1        0.0886
      8 N         144.5753  140.3259  157.8402 N.am    1  UNL1       -0.1739
      9 C         143.4294  139.8458  158.6807 C.2     1  UNL1        0.2759
     10 O         143.3255  138.3954  159.0488 O.2     1  UNL1       -0.2678
     11 C         142.3876  140.8160  159.1529 C.2     1  UNL1        0.1340
     12 N         141.1377  138.8854  160.3617 N.pl3   1  UNL1       -0.2134
     13 H         141.1674  138.1960  159.6595 H       1  UNL1        0.2928
     14 C         143.5472  138.3823  166.3552 C.3     1  UNL1        0.0327
     15 C         143.2574  138.6173  164.9023 C.2     1  UNL1       -0.0015
     16 C         144.1994  139.2175  163.9011 C.2     1  UNL1        0.0944
     17 N         143.4989  139.2644  162.5756 N.2     1  UNL1       -0.2442
     18 C         142.1239  138.6932  162.7576 C.2     1  UNL1        0.1052
     19 C         140.9885  138.4855  161.7996 C.3     1  UNL1        0.2198
     20 C         139.7038  137.8779  162.2797 C.2     1  UNL1        0.0258
     21 C         139.5545  137.4780  163.7177 C.2     1  UNL1       -0.0002
     22 C         140.6900  137.6856  164.6756 C.2     1  UNL1        0.0009
     23 C         141.9747  138.2932  164.1956 C.2     1  UNL1        0.0153
     24 N         139.2618  143.7267  160.5699 N.pl3   1  UNL1       -0.2243
     25 H         138.7391  144.2448  159.9160 H       1  UNL1        0.2918
     26 C         139.0162  143.9075  162.0386 C.3     1  UNL1        0.1704
     27 C         137.9199  143.1397  162.7158 C.3     1  UNL1        0.0478
     28 C         137.6744  143.3205  164.1844 C.3     1  UNL1        0.0042
     29 C         138.5250  144.2692  164.9759 C.3     1  UNL1        0.0016
     30 C         139.6213  145.0371  164.2987 C.3     1  UNL1        0.0196
     31 C         139.8668  144.8562  162.8299 C.3     1  UNL1        0.0939
     32 N         140.9631  145.6240  162.1527 N.3     1  UNL1       -0.3190
     33 H         141.4355  146.2162  162.8358 H       1  UNL1        0.1189
     34 H         140.5652  146.2061  161.4156 H       1  UNL1        0.1189
@<TRIPOS>BOND
     1    14    15    1
     2    15    16    2
     3    16    17    1
     4    17    18    2
     5    18    19    1
     6    19    12    1
     7    12     1    1
     8     1     2    1
     9     2     3    2
    10     3    24    1
    11    26    24    1
    12    26    27    1
    13    27    28    1
    14    28    29    1
    15    29    30    1
    16    30    31    1
    17    31    32    1
    18     3     4    1
    19     4     5    1
    20     5     6    2
    21     6     7    1
    22     7     8    2
    23     8     9    1
    24     9    10    2
    25     9    11    1
    26    19    20    1
    27    20    21    2
    28    21    22    1
    29    22    23    2
    30    23    15    1
    31    23    18    1
    32    11     1    2
    33    31    26    1
    34    11     5    1
    35    12    13    1
    36    24    25    1
    37    32    33    1
    38    32    34    1
