@<TRIPOS>MOLECULE
*****
 41 46 0 0 0
SMALL
GASTEIGER

@<TRIPOS>ATOM
      1 N         140.2335  138.7097  160.8481 N.3     1  UNL1       -0.2689
      2 C         141.6731  138.3631  161.0879 C.3     1  UNL1        0.0741
      3 C         142.7538  139.0948  160.3486 C.3     1  UNL1        0.0372
      4 C         142.3950  140.1732  159.3696 C.3     1  UNL1        0.0799
      5 C         140.9554  140.5198  159.1299 C.3     1  UNL1        0.0372
      6 C         139.8747  139.7880  159.8692 C.3     1  UNL1        0.0741
      7 N         143.4758  140.9049  158.6303 N.am    1  UNL1       -0.2618
      8 C         144.1213  140.4651  157.3498 C.2     1  UNL1        0.3074
      9 O         143.7994  139.2163  156.5836 O.2     1  UNL1       -0.2523
     10 N         145.1452  141.4932  156.9699 N.am    1  UNL1       -0.2635
     11 C         145.1326  142.5686  158.0156 C.3     1  UNL1        0.1192
     12 C         144.1008  142.2049  159.0419 C.3     1  UNL1        0.1191
     13 C         146.0271  141.4532  155.7571 C.3     1  UNL1        0.0819
     14 C         147.4563  141.8980  155.8539 C.3     1  UNL1        0.0520
     15 C         148.3382  141.8580  154.6412 C.3     1  UNL1        0.1439
     16 O         147.7907  141.3730  153.3315 O.3     1  UNL1       -0.3537
     17 C         146.3615  140.9282  153.2346 C.3     1  UNL1        0.1439
     18 C         145.4796  140.9682  154.4474 C.3     1  UNL1        0.0520
     19 C         143.7548  143.0015  160.2649 C.ar    1  UNL1       -0.0026
     20 C         142.4518  143.7413  160.3343 C.ar    1  UNL1       -0.0026
     21 C         142.1058  144.5378  161.5572 C.ar    1  UNL1       -0.0003
     22 C         143.0627  144.5946  162.7109 C.ar    1  UNL1       -0.0000
     23 C         144.3657  143.8548  162.6416 C.ar    1  UNL1       -0.0003
     24 C         144.7117  143.0582  161.4185 C.ar    1  UNL1       -0.0026
     25 C         139.1527  137.9780  161.5874 C.3     1  UNL1        0.0992
     26 C         138.5951  138.6492  166.0020 C.ar    1  UNL1        0.1453
     27 C         139.2644  137.3994  165.5120 C.ar    1  UNL1        0.0372
     28 C         139.4502  137.1757  164.0405 C.ar    1  UNL1        0.0002
     29 C         138.9668  138.2018  163.0590 C.ar    1  UNL1       -0.0059
     30 C         138.2976  139.4516  163.5489 C.ar    1  UNL1        0.0002
     31 C         138.1117  139.6753  165.0205 C.ar    1  UNL1        0.0372
     32 O         138.4092  138.8729  167.4735 O.3     1  UNL1       -0.4535
     33 C         140.3448  142.4086  169.4741 C.ar    1  UNL1        0.0142
     34 C         140.5382  142.1798  168.0043 C.ar    1  UNL1        0.0043
     35 C         139.8930  141.0013  167.3375 C.ar    1  UNL1        0.0375
     36 C         139.0544  140.0515  168.1404 C.ar    1  UNL1        0.1453
     37 C         138.8611  140.2803  169.6101 C.ar    1  UNL1        0.0375
     38 C         139.5063  141.4589  170.2770 C.ar    1  UNL1        0.0043
     39 O         140.2349  144.8756  170.2815 O.co2   1  UNL1       -0.5446
     40 C         140.9900  143.5872  170.1409 C.2     1  UNL1        0.0729
     41 O         142.3903  143.4774  170.6672 O.co2   1  UNL1       -0.5446
@<TRIPOS>UNITY_ATOM_ATTR
39 1
charge -1
@<TRIPOS>BOND
     1    39    40   ar
     2    40    41   ar
     3    40    33    1
     4    33    34   ar
     5    34    35   ar
     6    35    36   ar
     7    36    32    1
     8    32    26    1
     9    26    27   ar
    10    27    28   ar
    11    28    29   ar
    12    29    25    1
    13    25     1    1
    14     1     2    1
    15     2     3    1
    16     3     4    1
    17     4     7    1
    18     7     8   am
    19     8     9    2
    20     8    10   am
    21    10    13    1
    22    13    14    1
    23    14    15    1
    24    15    16    1
    25    16    17    1
    26    17    18    1
    27    10    11    1
    28    11    12    1
    29    12    19    1
    30    19    20   ar
    31    20    21   ar
    32    21    22   ar
    33    22    23   ar
    34    23    24   ar
    35     4     5    1
    36     5     6    1
    37    29    30   ar
    38    30    31   ar
    39    36    37   ar
    40    37    38   ar
    41    38    33   ar
    42    31    26   ar
    43     6     1    1
    44    12     7    1
    45    24    19   ar
    46    18    13    1
@<TRIPOS>MOLECULE
*****
 41 46 0 0 0
SMALL
GASTEIGER

@<TRIPOS>ATOM
      1 N         139.0629  139.7486  160.5475 N.3     1  UNL1       -0.2689
      2 C         138.1185  140.7321  159.9224 C.3     1  UNL1        0.0741
      3 C         138.6548  141.8868  159.1292 C.3     1  UNL1        0.0372
      4 C         140.1356  142.0580  158.9612 C.3     1  UNL1        0.0799
      5 C         141.0800  141.0745  159.5864 C.3     1  UNL1        0.0372
      6 C         140.5436  139.9198  160.3795 C.3     1  UNL1        0.0741
      7 N         140.6719  143.2126  158.1680 N.am    1  UNL1       -0.2618
      8 C         140.8681  143.2455  156.6813 C.2     1  UNL1        0.3074
      9 O         140.5625  142.1296  155.7267 O.2     1  UNL1       -0.2523
     10 N         141.4236  144.5903  156.3167 N.am    1  UNL1       -0.2635
     11 C         141.5707  145.3886  157.5782 C.3     1  UNL1        0.1192
     12 C         141.1061  144.5371  158.7223 C.3     1  UNL1        0.1191
     13 C         141.7710  145.0553  154.9336 C.3     1  UNL1        0.0819
     14 C         143.0128  144.5488  154.2618 C.3     1  UNL1        0.0520
     15 C         143.3603  145.0137  152.8787 C.3     1  UNL1        0.1439
     16 O         142.4658  145.9852  152.1672 O.3     1  UNL1       -0.3537
     17 C         141.2240  146.4917  152.8389 C.3     1  UNL1        0.1439
     18 C         140.8766  146.0268  154.2221 C.3     1  UNL1        0.0520
     19 C         141.0802  144.9395  160.1671 C.ar    1  UNL1       -0.0026
     20 C         139.9983  145.8465  160.6738 C.ar    1  UNL1       -0.0026
     21 C         139.9724  146.2489  162.1185 C.ar    1  UNL1       -0.0003
     22 C         141.0285  145.7442  163.0568 C.ar    1  UNL1       -0.0000
     23 C         142.1104  144.8372  162.5500 C.ar    1  UNL1       -0.0003
     24 C         142.1362  144.4348  161.1052 C.ar    1  UNL1       -0.0026
     25 C         138.5267  138.5940  161.3407 C.3     1  UNL1        0.0992
     26 C         138.6347  138.7100  165.8380 C.ar    1  UNL1        0.1453
     27 C         139.1376  137.5008  165.1066 C.ar    1  UNL1        0.0372
     28 C         139.1016  137.4621  163.6075 C.ar    1  UNL1        0.0002
     29 C         138.5627  138.6327  162.8398 C.ar    1  UNL1       -0.0059
     30 C         138.0598  139.8419  163.5711 C.ar    1  UNL1        0.0002
     31 C         138.0958  139.8806  165.0703 C.ar    1  UNL1        0.0372
     32 O         138.6708  138.7487  167.3370 O.3     1  UNL1       -0.4535
     33 C         140.3700  142.3370  169.4551 C.ar    1  UNL1        0.0142
     34 C         139.4160  141.4265  170.1696 C.ar    1  UNL1        0.0043
     35 C         138.8495  140.2304  169.4636 C.ar    1  UNL1        0.0375
     36 C         139.2372  139.9448  168.0430 C.ar    1  UNL1        0.1453
     37 C         140.1913  140.8553  167.3285 C.ar    1  UNL1        0.0375
     38 C         140.7577  142.0514  168.0345 C.ar    1  UNL1        0.0043
     39 O         142.3392  143.4967  170.6910 O.co2   1  UNL1       -0.5446
     40 C         140.9365  143.5332  170.1611 C.2     1  UNL1        0.0729
     41 O         140.1001  144.7658  170.3372 O.co2   1  UNL1       -0.5446
@<TRIPOS>UNITY_ATOM_ATTR
39 1
charge -1
@<TRIPOS>BOND
     1    39    40   ar
     2    40    41   ar
     3    40    33    1
     4    33    34   ar
     5    34    35   ar
     6    35    36   ar
     7    36    32    1
     8    32    26    1
     9    26    27   ar
    10    27    28   ar
    11    28    29   ar
    12    29    25    1
    13    25     1    1
    14     1     2    1
    15     2     3    1
    16     3     4    1
    17     4     7    1
    18     7     8   am
    19     8     9    2
    20     8    10   am
    21    10    13    1
    22    13    14    1
    23    14    15    1
    24    15    16    1
    25    16    17    1
    26    17    18    1
    27    10    11    1
    28    11    12    1
    29    12    19    1
    30    19    20   ar
    31    20    21   ar
    32    21    22   ar
    33    22    23   ar
    34    23    24   ar
    35     4     5    1
    36     5     6    1
    37    29    30   ar
    38    30    31   ar
    39    36    37   ar
    40    37    38   ar
    41    38    33   ar
    42    31    26   ar
    43     6     1    1
    44    12     7    1
    45    24    19   ar
    46    18    13    1
@<TRIPOS>MOLECULE
*****
 41 46 0 0 0
SMALL
GASTEIGER

@<TRIPOS>ATOM
      1 N         143.6250  141.8505  161.1290 N.3     1  UNL1       -0.2689
      2 C         142.3398  142.5920  161.3489 C.3     1  UNL1        0.0741
      3 C         141.5576  142.3792  162.6109 C.3     1  UNL1        0.0372
      4 C         142.0606  141.4248  163.6532 C.3     1  UNL1        0.0799
      5 C         143.3458  140.6833  163.4333 C.3     1  UNL1        0.0372
      6 C         144.1281  140.8962  162.1712 C.3     1  UNL1        0.0741
      7 N         141.2783  141.2119  164.9152 N.am    1  UNL1       -0.2618
      8 C         141.6618  141.6954  166.2823 C.2     1  UNL1        0.3074
      9 O         142.8949  142.4767  166.6275 O.2     1  UNL1       -0.2523
     10 N         140.5958  141.2605  167.2438 N.am    1  UNL1       -0.2635
     11 C         139.5533  140.5082  166.4708 C.3     1  UNL1        0.1192
     12 C         139.9752  140.4782  165.0317 C.3     1  UNL1        0.1191
     13 C         140.5756  141.5305  168.7191 C.3     1  UNL1        0.0819
     14 C         140.7807  140.4059  169.6903 C.3     1  UNL1        0.0520
     15 C         140.7606  140.6758  171.1657 C.3     1  UNL1        0.1439
     16 O         140.5354  142.0705  171.6699 O.3     1  UNL1       -0.3537
     17 C         140.3303  143.1951  170.6988 C.3     1  UNL1        0.1439
     18 C         140.3505  142.9251  169.2234 C.3     1  UNL1        0.0520
     19 C         139.2256  139.8285  163.9066 C.ar    1  UNL1       -0.0026
     20 C         138.3644  140.6584  163.0012 C.ar    1  UNL1       -0.0026
     21 C         137.6147  140.0087  161.8761 C.ar    1  UNL1       -0.0003
     22 C         137.7262  138.5291  161.6563 C.ar    1  UNL1       -0.0000
     23 C         138.5874  137.6992  162.5616 C.ar    1  UNL1       -0.0003
     24 C         139.3370  138.3489  163.6867 C.ar    1  UNL1       -0.0026
     25 C         144.4073  142.0634  159.8670 C.3     1  UNL1        0.0992
     26 C         143.6494  139.4507  156.2823 C.ar    1  UNL1        0.1453
     27 C         142.9875  139.1381  157.5917 C.ar    1  UNL1        0.0372
     28 C         143.2402  140.0090  158.7865 C.ar    1  UNL1        0.0002
     29 C         144.1546  141.1925  158.6721 C.ar    1  UNL1       -0.0059
     30 C         144.8164  141.5051  157.3628 C.ar    1  UNL1        0.0002
     31 C         144.5638  140.6342  156.1679 C.ar    1  UNL1        0.0372
     32 O         143.3967  138.5799  155.0875 O.3     1  UNL1       -0.4535
     33 C         142.3282  134.2447  155.6485 C.ar    1  UNL1        0.0142
     34 C         143.7510  134.6928  155.8055 C.ar    1  UNL1        0.0043
     35 C         144.1072  136.1379  155.6184 C.ar    1  UNL1        0.0375
     36 C         143.0405  137.1348  155.2745 C.ar    1  UNL1        0.1453
     37 C         141.6177  136.6867  155.1175 C.ar    1  UNL1        0.0375
     38 C         141.2615  135.2416  155.3045 C.ar    1  UNL1        0.0043
     39 O         142.4929  132.0465  157.0235 O.co2   1  UNL1       -0.5446
     40 C         141.9720  132.7997  155.8355 C.2     1  UNL1        0.0729
     41 O         141.0948  132.1078  154.8346 O.co2   1  UNL1       -0.5446
@<TRIPOS>UNITY_ATOM_ATTR
39 1
charge -1
@<TRIPOS>BOND
     1    39    40   ar
     2    40    41   ar
     3    40    33    1
     4    33    34   ar
     5    34    35   ar
     6    35    36   ar
     7    36    32    1
     8    32    26    1
     9    26    27   ar
    10    27    28   ar
    11    28    29   ar
    12    29    25    1
    13    25     1    1
    14     1     2    1
    15     2     3    1
    16     3     4    1
    17     4     7    1
    18     7     8   am
    19     8     9    2
    20     8    10   am
    21    10    13    1
    22    13    14    1
    23    14    15    1
    24    15    16    1
    25    16    17    1
    26    17    18    1
    27    10    11    1
    28    11    12    1
    29    12    19    1
    30    19    20   ar
    31    20    21   ar
    32    21    22   ar
    33    22    23   ar
    34    23    24   ar
    35     4     5    1
    36     5     6    1
    37    29    30   ar
    38    30    31   ar
    39    36    37   ar
    40    37    38   ar
    41    38    33   ar
    42    31    26   ar
    43     6     1    1
    44    12     7    1
    45    24    19   ar
    46    18    13    1
@<TRIPOS>MOLECULE
*****
 41 46 0 0 0
SMALL
GASTEIGER

@<TRIPOS>ATOM
      1 N         142.4969  139.0220  160.9194 N.3     1  UNL1       -0.2689
      2 C         142.8160  140.2413  160.1060 C.3     1  UNL1        0.0741
      3 C         141.7535  140.8774  159.2597 C.3     1  UNL1        0.0372
      4 C         140.3718  140.2942  159.2266 C.3     1  UNL1        0.0799
      5 C         140.0527  139.0750  160.0400 C.3     1  UNL1        0.0372
      6 C         141.1153  138.4389  160.8864 C.3     1  UNL1        0.0741
      7 N         139.3093  140.9303  158.3803 N.am    1  UNL1       -0.2618
      8 C         138.5810  140.2787  157.2423 C.2     1  UNL1        0.3074
      9 O         138.7874  138.8767  156.7509 O.2     1  UNL1       -0.2523
     10 N         137.6101  141.2754  156.6819 N.am    1  UNL1       -0.2635
     11 C         137.7383  142.5431  157.4736 C.3     1  UNL1        0.1192
     12 C         138.7885  142.3298  158.5233 C.3     1  UNL1        0.1191
     13 C         136.6752  141.0449  155.5318 C.3     1  UNL1        0.0819
     14 C         137.2199  140.8786  154.1442 C.3     1  UNL1        0.0520
     15 C         136.2850  140.6481  152.9940 C.3     1  UNL1        0.1439
     16 O         134.8052  140.5840  153.2316 O.3     1  UNL1       -0.3537
     17 C         134.2605  140.7504  154.6192 C.3     1  UNL1        0.1439
     18 C         135.1955  140.9808  155.7694 C.3     1  UNL1        0.0520
     19 C         139.2387  143.3387  159.5377 C.ar    1  UNL1       -0.0026
     20 C         138.8504  143.1791  160.9778 C.ar    1  UNL1       -0.0026
     21 C         139.3006  144.1880  161.9923 C.ar    1  UNL1       -0.0003
     22 C         140.1392  145.3567  161.5668 C.ar    1  UNL1       -0.0000
     23 C         140.5275  145.5163  160.1268 C.ar    1  UNL1       -0.0003
     24 C         140.0773  144.5074  159.1123 C.ar    1  UNL1       -0.0026
     25 C         143.5594  138.3859  161.7658 C.3     1  UNL1        0.0992
     26 C         143.3413  138.6833  166.2507 C.ar    1  UNL1        0.1453
     27 C         142.1924  138.1025  165.4808 C.ar    1  UNL1        0.0372
     28 C         142.2651  138.0034  163.9859 C.ar    1  UNL1        0.0002
     29 C         143.4867  138.4851  163.2608 C.ar    1  UNL1       -0.0059
     30 C         144.6356  139.0659  164.0307 C.ar    1  UNL1        0.0002
     31 C         144.5629  139.1650  165.5257 C.ar    1  UNL1        0.0372
     32 O         143.2685  138.7825  167.7457 O.3     1  UNL1       -0.4535
     33 C         140.9267  142.1092  169.6688 C.ar    1  UNL1        0.0142
     34 C         141.8472  142.4056  168.5221 C.ar    1  UNL1        0.0043
     35 C         142.6278  141.2966  167.8811 C.ar    1  UNL1        0.0375
     36 C         142.4879  139.8914  168.3867 C.ar    1  UNL1        0.1453
     37 C         141.5674  139.5951  169.5333 C.ar    1  UNL1        0.0375
     38 C         140.7868  140.7040  170.1744 C.ar    1  UNL1        0.0043
     39 O         140.6222  144.6357  170.1923 O.co2   1  UNL1       -0.5446
     40 C         140.1461  143.2182  170.3098 C.2     1  UNL1        0.0729
     41 O         138.8894  142.9096  171.0684 O.co2   1  UNL1       -0.5446
@<TRIPOS>UNITY_ATOM_ATTR
39 1
charge -1
@<TRIPOS>BOND
     1    39    40   ar
     2    40    41   ar
     3    40    33    1
     4    33    34   ar
     5    34    35   ar
     6    35    36   ar
     7    36    32    1
     8    32    26    1
     9    26    27   ar
    10    27    28   ar
    11    28    29   ar
    12    29    25    1
    13    25     1    1
    14     1     2    1
    15     2     3    1
    16     3     4    1
    17     4     7    1
    18     7     8   am
    19     8     9    2
    20     8    10   am
    21    10    13    1
    22    13    14    1
    23    14    15    1
    24    15    16    1
    25    16    17    1
    26    17    18    1
    27    10    11    1
    28    11    12    1
    29    12    19    1
    30    19    20   ar
    31    20    21   ar
    32    21    22   ar
    33    22    23   ar
    34    23    24   ar
    35     4     5    1
    36     5     6    1
    37    29    30   ar
    38    30    31   ar
    39    36    37   ar
    40    37    38   ar
    41    38    33   ar
    42    31    26   ar
    43     6     1    1
    44    12     7    1
    45    24    19   ar
    46    18    13    1
@<TRIPOS>MOLECULE
*****
 41 46 0 0 0
SMALL
GASTEIGER

@<TRIPOS>ATOM
      1 N         143.5855  141.9246  160.9796 N.3     1  UNL1       -0.2689
      2 C         142.4298  142.8020  161.3599 C.3     1  UNL1        0.0741
      3 C         141.7016  142.5659  162.6498 C.3     1  UNL1        0.0372
      4 C         142.1291  141.4524  163.5595 C.3     1  UNL1        0.0799
      5 C         143.2848  140.5751  163.1792 C.3     1  UNL1        0.0372
      6 C         144.0130  140.8112  161.8892 C.3     1  UNL1        0.0741
      7 N         141.4009  141.2164  164.8494 N.am    1  UNL1       -0.2618
      8 C         141.8261  141.7017  166.2035 C.2     1  UNL1        0.3074
      9 O         143.0541  142.5083  166.5055 O.2     1  UNL1       -0.2523
     10 N         140.8076  141.2388  167.2027 N.am    1  UNL1       -0.2635
     11 C         139.7529  140.4673  166.4661 C.3     1  UNL1        0.1192
     12 C         140.1196  140.4535  165.0117 C.3     1  UNL1        0.1191
     13 C         140.8384  141.5013  168.6793 C.3     1  UNL1        0.0819
     14 C         140.3514  142.8137  169.2181 C.3     1  UNL1        0.0520
     15 C         140.3822  143.0763  170.6946 C.3     1  UNL1        0.1439
     16 O         140.8999  142.0262  171.6324 O.3     1  UNL1       -0.3537
     17 C         141.3869  140.7137  171.0936 C.3     1  UNL1        0.1439
     18 C         141.3561  140.4513  169.6170 C.3     1  UNL1        0.0520
     19 C         139.3415  139.7928  163.9126 C.ar    1  UNL1       -0.0026
     20 C         139.3995  138.3035  163.7433 C.ar    1  UNL1       -0.0026
     21 C         138.6216  137.6427  162.6442 C.ar    1  UNL1       -0.0003
     22 C         137.7855  138.4712  161.7143 C.ar    1  UNL1       -0.0000
     23 C         137.7275  139.9605  161.8836 C.ar    1  UNL1       -0.0003
     24 C         138.5055  140.6212  162.9828 C.ar    1  UNL1       -0.0026
     25 C         144.3138  142.1607  159.6897 C.3     1  UNL1        0.0992
     26 C         143.5938  139.4500  156.1706 C.ar    1  UNL1        0.1453
     27 C         144.8210  140.3113  156.2151 C.ar    1  UNL1        0.0372
     28 C         145.0610  141.2149  157.3881 C.ar    1  UNL1        0.0002
     29 C         144.0737  141.2571  158.5166 C.ar    1  UNL1       -0.0059
     30 C         142.8465  140.3958  158.4721 C.ar    1  UNL1        0.0002
     31 C         142.6065  139.4922  157.2991 C.ar    1  UNL1        0.0372
     32 O         143.3538  138.5464  154.9976 O.3     1  UNL1       -0.4535
     33 C         142.3879  134.2022  155.6642 C.ar    1  UNL1        0.0142
     34 C         141.3267  135.1388  155.1679 C.ar    1  UNL1        0.0043
     35 C         141.6486  136.5869  154.9457 C.ar    1  UNL1        0.0375
     36 C         143.0318  137.0983  155.2198 C.ar    1  UNL1        0.1453
     37 C         144.0931  136.1617  155.7161 C.ar    1  UNL1        0.0375
     38 C         143.7711  134.7136  155.9383 C.ar    1  UNL1        0.0043
     39 O         141.2096  132.0163  154.9004 O.co2   1  UNL1       -0.5446
     40 C         142.0659  132.7541  155.8864 C.2     1  UNL1        0.0729
     41 O         142.6003  132.0438  157.0947 O.co2   1  UNL1       -0.5446
@<TRIPOS>UNITY_ATOM_ATTR
39 1
charge -1
@<TRIPOS>BOND
     1    39    40   ar
     2    40    41   ar
     3    40    33    1
     4    33    34   ar
     5    34    35   ar
     6    35    36   ar
     7    36    32    1
     8    32    26    1
     9    26    27   ar
    10    27    28   ar
    11    28    29   ar
    12    29    25    1
    13    25     1    1
    14     1     2    1
    15     2     3    1
    16     3     4    1
    17     4     7    1
    18     7     8   am
    19     8     9    2
    20     8    10   am
    21    10    13    1
    22    13    14    1
    23    14    15    1
    24    15    16    1
    25    16    17    1
    26    17    18    1
    27    10    11    1
    28    11    12    1
    29    12    19    1
    30    19    20   ar
    31    20    21   ar
    32    21    22   ar
    33    22    23   ar
    34    23    24   ar
    35     4     5    1
    36     5     6    1
    37    29    30   ar
    38    30    31   ar
    39    36    37   ar
    40    37    38   ar
    41    38    33   ar
    42    31    26   ar
    43     6     1    1
    44    12     7    1
    45    24    19   ar
    46    18    13    1
@<TRIPOS>MOLECULE
*****
 41 46 0 0 0
SMALL
GASTEIGER

@<TRIPOS>ATOM
      1 N         142.7060  142.9393  159.8811 N.3     1  UNL1       -0.2689
      2 C         143.5399  142.0020  160.7034 C.3     1  UNL1        0.0741
      3 C         143.1445  141.6893  162.1161 C.3     1  UNL1        0.0372
      4 C         141.9150  142.3138  162.7066 C.3     1  UNL1        0.0799
      5 C         141.0811  143.2510  161.8843 C.3     1  UNL1        0.0372
      6 C         141.4767  143.5638  160.4715 C.3     1  UNL1        0.0741
      7 N         141.5196  142.0010  164.1192 N.am    1  UNL1       -0.2618
      8 C         142.0843  142.6377  165.3544 C.2     1  UNL1        0.3074
      9 O         143.1437  143.6989  165.3938 O.2     1  UNL1       -0.2523
     10 N         141.4037  142.0268  166.5434 N.am    1  UNL1       -0.2635
     11 C         140.4183  141.0126  166.0430 C.3     1  UNL1        0.1192
     12 C         140.4899  140.9967  164.5448 C.3     1  UNL1        0.1191
     13 C         141.6630  142.3699  167.9804 C.3     1  UNL1        0.0819
     14 C         140.5534  142.9063  168.8354 C.3     1  UNL1        0.0520
     15 C         140.8126  143.2494  170.2725 C.3     1  UNL1        0.1439
     16 O         142.1815  143.0562  170.8545 O.3     1  UNL1       -0.3537
     17 C         143.2911  142.5198  169.9995 C.3     1  UNL1        0.1439
     18 C         143.0319  142.1767  168.5625 C.3     1  UNL1        0.0520
     19 C         139.6749  140.1287  163.6324 C.ar    1  UNL1       -0.0026
     20 C         139.9518  138.6567  163.5524 C.ar    1  UNL1       -0.0026
     21 C         139.1369  137.7887  162.6400 C.ar    1  UNL1       -0.0003
     22 C         138.0450  138.3928  161.8075 C.ar    1  UNL1       -0.0000
     23 C         137.7681  139.8649  161.8875 C.ar    1  UNL1       -0.0003
     24 C         138.5831  140.7328  162.8000 C.ar    1  UNL1       -0.0026
     25 C         143.1015  143.2521  158.4684 C.3     1  UNL1        0.0992
     26 C         140.2485  145.4449  155.7661 C.ar    1  UNL1        0.1453
     27 C         140.1695  143.9518  155.8869 C.ar    1  UNL1        0.0372
     28 C         141.1205  143.2209  156.7877 C.ar    1  UNL1        0.0002
     29 C         142.1505  143.9830  157.5677 C.ar    1  UNL1       -0.0059
     30 C         142.2294  145.4760  157.4469 C.ar    1  UNL1        0.0002
     31 C         141.2784  146.2070  156.5461 C.ar    1  UNL1        0.0372
     32 O         139.2975  146.1758  154.8654 O.3     1  UNL1       -0.4535
     33 C         139.2617  150.6752  154.8072 C.ar    1  UNL1        0.0142
     34 C         140.0062  149.9174  153.7483 C.ar    1  UNL1        0.0043
     35 C         140.0181  148.4176  153.7677 C.ar    1  UNL1        0.0375
     36 C         139.2856  147.6756  154.8460 C.ar    1  UNL1        0.1453
     37 C         138.5411  148.4335  155.9050 C.ar    1  UNL1        0.0375
     38 C         138.5292  149.9333  155.8856 C.ar    1  UNL1        0.0043
     39 O         138.9011  152.9385  156.0310 O.co2   1  UNL1       -0.5446
     40 C         139.2498  152.1751  154.7879 C.2     1  UNL1        0.0729
     41 O         139.5866  152.9115  153.5253 O.co2   1  UNL1       -0.5446
@<TRIPOS>UNITY_ATOM_ATTR
39 1
charge -1
@<TRIPOS>BOND
     1    39    40   ar
     2    40    41   ar
     3    40    33    1
     4    33    34   ar
     5    34    35   ar
     6    35    36   ar
     7    36    32    1
     8    32    26    1
     9    26    27   ar
    10    27    28   ar
    11    28    29   ar
    12    29    25    1
    13    25     1    1
    14     1     2    1
    15     2     3    1
    16     3     4    1
    17     4     7    1
    18     7     8   am
    19     8     9    2
    20     8    10   am
    21    10    13    1
    22    13    14    1
    23    14    15    1
    24    15    16    1
    25    16    17    1
    26    17    18    1
    27    10    11    1
    28    11    12    1
    29    12    19    1
    30    19    20   ar
    31    20    21   ar
    32    21    22   ar
    33    22    23   ar
    34    23    24   ar
    35     4     5    1
    36     5     6    1
    37    29    30   ar
    38    30    31   ar
    39    36    37   ar
    40    37    38   ar
    41    38    33   ar
    42    31    26   ar
    43     6     1    1
    44    12     7    1
    45    24    19   ar
    46    18    13    1
@<TRIPOS>MOLECULE
*****
 41 46 0 0 0
SMALL
GASTEIGER

@<TRIPOS>ATOM
      1 N         139.3428  139.0864  160.1925 N.3     1  UNL1       -0.2689
      2 C         138.1868  140.0399  160.1257 C.3     1  UNL1        0.0741
      3 C         138.0778  141.0077  158.9850 C.3     1  UNL1        0.0372
      4 C         139.1249  141.0221  157.9109 C.3     1  UNL1        0.0799
      5 C         140.2809  140.0686  157.9777 C.3     1  UNL1        0.0372
      6 C         140.3898  139.1007  159.1186 C.3     1  UNL1        0.0741
      7 N         139.0160  141.9899  156.7702 N.am    1  UNL1       -0.2618
      8 C         139.4833  143.4152  156.7756 C.2     1  UNL1        0.3074
      9 O         140.1416  144.1230  157.9226 O.2     1  UNL1       -0.2523
     10 N         139.1767  144.0086  155.4325 N.am    1  UNL1       -0.2635
     11 C         138.5199  142.9500  154.5970 C.3     1  UNL1        0.1192
     12 C         138.4205  141.7024  155.4238 C.3     1  UNL1        0.1191
     13 C         139.4747  145.4139  155.0006 C.3     1  UNL1        0.0819
     14 C         140.4774  145.6681  153.9144 C.3     1  UNL1        0.0520
     15 C         140.7754  147.0733  153.4825 C.3     1  UNL1        0.1439
     16 O         140.0705  148.2245  154.1369 O.3     1  UNL1       -0.3537
     17 C         139.0678  147.9703  155.2232 C.3     1  UNL1        0.1439
     18 C         138.7699  146.5650  155.6550 C.3     1  UNL1        0.0520
     19 C         137.8295  140.3965  154.9817 C.ar    1  UNL1       -0.0026
     20 C         136.3407  140.2412  154.8863 C.ar    1  UNL1       -0.0026
     21 C         135.7496  138.9354  154.4443 C.ar    1  UNL1       -0.0003
     22 C         136.6475  137.7848  154.0976 C.ar    1  UNL1       -0.0000
     23 C         138.1363  137.9402  154.1930 C.ar    1  UNL1       -0.0003
     24 C         138.7273  139.2460  154.6351 C.ar    1  UNL1       -0.0026
     25 C         139.4517  138.1185  161.3333 C.3     1  UNL1        0.0992
     26 C         141.9386  139.1584  164.9367 C.ar    1  UNL1        0.1453
     27 C         141.4182  137.7624  164.7620 C.ar    1  UNL1        0.0372
     28 C         140.5893  137.4158  163.5609 C.ar    1  UNL1        0.0002
     29 C         140.2807  138.4652  162.5344 C.ar    1  UNL1       -0.0059
     30 C         140.8010  139.8611  162.7091 C.ar    1  UNL1        0.0002
     31 C         141.6300  140.2078  163.9102 C.ar    1  UNL1        0.0372
     32 O         142.7676  139.5050  166.1378 O.3     1  UNL1       -0.4535
     33 C         141.0121  142.0140  169.4353 C.ar    1  UNL1        0.0142
     34 C         140.3008  140.7763  168.9748 C.ar    1  UNL1        0.0043
     35 C         140.8859  139.9400  167.8757 C.ar    1  UNL1        0.0375
     36 C         142.1824  140.3414  167.2370 C.ar    1  UNL1        0.1453
     37 C         142.8937  141.5791  167.6974 C.ar    1  UNL1        0.0375
     38 C         142.3085  142.4154  168.7966 C.ar    1  UNL1        0.0043
     39 O         139.9716  144.2510  170.2499 O.co2   1  UNL1       -0.5446
     40 C         140.4269  142.8504  170.5344 C.2     1  UNL1        0.0729
     41 O         140.2970  142.2861  171.9181 O.co2   1  UNL1       -0.5446
@<TRIPOS>UNITY_ATOM_ATTR
39 1
charge -1
@<TRIPOS>BOND
     1    39    40   ar
     2    40    41   ar
     3    40    33    1
     4    33    34   ar
     5    34    35   ar
     6    35    36   ar
     7    36    32    1
     8    32    26    1
     9    26    27   ar
    10    27    28   ar
    11    28    29   ar
    12    29    25    1
    13    25     1    1
    14     1     2    1
    15     2     3    1
    16     3     4    1
    17     4     7    1
    18     7     8   am
    19     8     9    2
    20     8    10   am
    21    10    13    1
    22    13    14    1
    23    14    15    1
    24    15    16    1
    25    16    17    1
    26    17    18    1
    27    10    11    1
    28    11    12    1
    29    12    19    1
    30    19    20   ar
    31    20    21   ar
    32    21    22   ar
    33    22    23   ar
    34    23    24   ar
    35     4     5    1
    36     5     6    1
    37    29    30   ar
    38    30    31   ar
    39    36    37   ar
    40    37    38   ar
    41    38    33   ar
    42    31    26   ar
    43     6     1    1
    44    12     7    1
    45    24    19   ar
    46    18    13    1
@<TRIPOS>MOLECULE
*****
 41 46 0 0 0
SMALL
GASTEIGER

@<TRIPOS>ATOM
      1 N         142.4582  139.7303  160.9971 N.3     1  UNL1       -0.2689
      2 C         143.4936  139.9669  162.0564 C.3     1  UNL1        0.0741
      3 C         143.0902  140.5298  163.3870 C.3     1  UNL1        0.0372
      4 C         141.6514  140.8561  163.6583 C.3     1  UNL1        0.0799
      5 C         140.6161  140.6195  162.5990 C.3     1  UNL1        0.0372
      6 C         141.0195  140.0566  161.2684 C.3     1  UNL1        0.0741
      7 N         141.2481  141.4190  164.9888 N.am    1  UNL1       -0.2618
      8 C         141.3873  140.7327  166.3153 C.2     1  UNL1        0.3074
      9 O         141.9544  139.3631  166.5441 O.2     1  UNL1       -0.2523
     10 N         140.8599  141.6566  167.3728 N.am    1  UNL1       -0.2635
     11 C         140.3947  142.9139  166.6999 C.3     1  UNL1        0.1192
     12 C         140.6346  142.7671  165.2265 C.3     1  UNL1        0.1191
     13 C         140.8071  141.3729  168.8448 C.3     1  UNL1        0.0819
     14 C         139.9560  140.2514  169.3625 C.3     1  UNL1        0.0520
     15 C         139.9031  139.9677  170.8344 C.3     1  UNL1        0.1439
     16 O         140.7013  140.8057  171.7888 O.3     1  UNL1       -0.3537
     17 C         141.5524  141.9272  171.2712 C.3     1  UNL1        0.1439
     18 C         141.6052  142.2108  169.7992 C.3     1  UNL1        0.0520
     19 C         140.3168  143.7889  164.1754 C.ar    1  UNL1       -0.0026
     20 C         141.4126  144.6314  163.5929 C.ar    1  UNL1       -0.0026
     21 C         141.0948  145.6532  162.5418 C.ar    1  UNL1       -0.0003
     22 C         139.6812  145.8326  162.0731 C.ar    1  UNL1       -0.0000
     23 C         138.5854  144.9900  162.6557 C.ar    1  UNL1       -0.0003
     24 C         138.9032  143.9682  163.7068 C.ar    1  UNL1       -0.0026
     25 C         142.8616  139.1675  159.6666 C.3     1  UNL1        0.0992
     26 C         144.7204  141.8425  156.5618 C.ar    1  UNL1        0.1453
     27 C         144.2264  140.4790  156.1784 C.ar    1  UNL1        0.0372
     28 C         143.6068  139.5874  157.2133 C.ar    1  UNL1        0.0002
     29 C         143.4812  140.0592  158.6316 C.ar    1  UNL1       -0.0059
     30 C         143.9752  141.4226  159.0151 C.ar    1  UNL1        0.0002
     31 C         144.5948  142.3143  157.9801 C.ar    1  UNL1        0.0372
     32 O         145.3400  142.7341  155.5269 O.3     1  UNL1       -0.4535
     33 C         149.6110  142.0878  154.2658 C.ar    1  UNL1        0.0142
     34 C         148.5706  142.4321  153.2417 C.ar    1  UNL1        0.0043
     35 C         147.1469  142.6475  153.6621 C.ar    1  UNL1        0.0375
     36 C         146.7636  142.5187  155.1065 C.ar    1  UNL1        0.1453
     37 C         147.8041  142.1744  156.1306 C.ar    1  UNL1        0.0375
     38 C         149.2278  141.9590  155.7103 C.ar    1  UNL1        0.0043
     39 O         152.1544  142.4152  154.6831 O.co2   1  UNL1       -0.5446
     40 C         151.0347  141.8723  153.8455 C.2     1  UNL1        0.0729
     41 O         151.3388  141.1140  152.5876 O.co2   1  UNL1       -0.5446
@<TRIPOS>UNITY_ATOM_ATTR
39 1
charge -1
@<TRIPOS>BOND
     1    39    40   ar
     2    40    41   ar
     3    40    33    1
     4    33    34   ar
     5    34    35   ar
     6    35    36   ar
     7    36    32    1
     8    32    26    1
     9    26    27   ar
    10    27    28   ar
    11    28    29   ar
    12    29    25    1
    13    25     1    1
    14     1     2    1
    15     2     3    1
    16     3     4    1
    17     4     7    1
    18     7     8   am
    19     8     9    2
    20     8    10   am
    21    10    13    1
    22    13    14    1
    23    14    15    1
    24    15    16    1
    25    16    17    1
    26    17    18    1
    27    10    11    1
    28    11    12    1
    29    12    19    1
    30    19    20   ar
    31    20    21   ar
    32    21    22   ar
    33    22    23   ar
    34    23    24   ar
    35     4     5    1
    36     5     6    1
    37    29    30   ar
    38    30    31   ar
    39    36    37   ar
    40    37    38   ar
    41    38    33   ar
    42    31    26   ar
    43     6     1    1
    44    12     7    1
    45    24    19   ar
    46    18    13    1
@<TRIPOS>MOLECULE
*****
 41 46 0 0 0
SMALL
GASTEIGER

@<TRIPOS>ATOM
      1 N         142.6182  139.7550  161.0624 N.3     1  UNL1       -0.2689
      2 C         143.6073  140.4535  161.9477 C.3     1  UNL1        0.0741
      3 C         143.1695  141.0058  163.2718 C.3     1  UNL1        0.0372
      4 C         141.7425  140.8597  163.7106 C.3     1  UNL1        0.0799
      5 C         140.7534  140.1612  162.8253 C.3     1  UNL1        0.0372
      6 C         141.1913  139.6088  161.5012 C.3     1  UNL1        0.0741
      7 N         141.3047  141.4120  165.0347 N.am    1  UNL1       -0.2618
      8 C         141.4622  140.7394  166.3661 C.2     1  UNL1        0.3074
      9 O         142.0851  139.3963  166.6072 O.2     1  UNL1       -0.2523
     10 N         140.8874  141.6456  167.4141 N.am    1  UNL1       -0.2635
     11 C         140.3747  142.8784  166.7304 C.3     1  UNL1        0.1192
     12 C         140.6326  142.7340  165.2598 C.3     1  UNL1        0.1191
     13 C         140.8346  141.3678  168.8873 C.3     1  UNL1        0.0819
     14 C         141.6219  142.2183  169.8396 C.3     1  UNL1        0.0520
     15 C         141.5691  141.9406  171.3127 C.3     1  UNL1        0.1439
     16 O         140.7289  140.8123  171.8335 O.3     1  UNL1       -0.3537
     17 C         139.9416  139.9619  170.8813 C.3     1  UNL1        0.1439
     18 C         139.9944  140.2396  169.4081 C.3     1  UNL1        0.0520
     19 C         140.2803  143.7357  164.2004 C.ar    1  UNL1       -0.0026
     20 C         138.8575  143.8794  163.7475 C.ar    1  UNL1       -0.0026
     21 C         138.5052  144.8810  162.6881 C.ar    1  UNL1       -0.0003
     22 C         139.5756  145.7392  162.0815 C.ar    1  UNL1       -0.0000
     23 C         140.9983  145.5956  162.5345 C.ar    1  UNL1       -0.0003
     24 C         141.3507  144.5938  163.5939 C.ar    1  UNL1       -0.0026
     25 C         143.0559  139.2027  159.7383 C.3     1  UNL1        0.0992
     26 C         140.2859  139.3869  156.1966 C.ar    1  UNL1        0.1453
     27 C         140.3168  138.1618  157.0618 C.ar    1  UNL1        0.0372
     28 C         141.2402  138.1004  158.2423 C.ar    1  UNL1        0.0002
     29 C         142.1326  139.2641  158.5577 C.ar    1  UNL1       -0.0059
     30 C         142.1017  140.4891  157.6927 C.ar    1  UNL1        0.0002
     31 C         141.1783  140.5505  156.5121 C.ar    1  UNL1        0.0372
     32 O         139.3626  139.4482  155.0161 O.3     1  UNL1       -0.4535
     33 C         134.9993  140.3701  155.6178 C.ar    1  UNL1        0.0142
     34 C         135.4225  139.4141  154.5422 C.ar    1  UNL1        0.0043
     35 C         136.8769  139.1068  154.3417 C.ar    1  UNL1        0.0375
     36 C         137.9081  139.7555  155.2167 C.ar    1  UNL1        0.1453
     37 C         137.4849  140.7115  156.2923 C.ar    1  UNL1        0.0375
     38 C         136.0305  141.0188  156.4928 C.ar    1  UNL1        0.0043
     39 O         132.8756  140.3253  157.1138 O.co2   1  UNL1       -0.5446
     40 C         133.5449  140.6774  155.8184 C.2     1  UNL1        0.0729
     41 O         132.7597  141.3367  154.7235 O.co2   1  UNL1       -0.5446
@<TRIPOS>UNITY_ATOM_ATTR
39 1
charge -1
@<TRIPOS>BOND
     1    39    40   ar
     2    40    41   ar
     3    40    33    1
     4    33    34   ar
     5    34    35   ar
     6    35    36   ar
     7    36    32    1
     8    32    26    1
     9    26    27   ar
    10    27    28   ar
    11    28    29   ar
    12    29    25    1
    13    25     1    1
    14     1     2    1
    15     2     3    1
    16     3     4    1
    17     4     7    1
    18     7     8   am
    19     8     9    2
    20     8    10   am
    21    10    13    1
    22    13    14    1
    23    14    15    1
    24    15    16    1
    25    16    17    1
    26    17    18    1
    27    10    11    1
    28    11    12    1
    29    12    19    1
    30    19    20   ar
    31    20    21   ar
    32    21    22   ar
    33    22    23   ar
    34    23    24   ar
    35     4     5    1
    36     5     6    1
    37    29    30   ar
    38    30    31   ar
    39    36    37   ar
    40    37    38   ar
    41    38    33   ar
    42    31    26   ar
    43     6     1    1
    44    12     7    1
    45    24    19   ar
    46    18    13    1
