@<TRIPOS>MOLECULE
*****
 31 36 0 0 0
SMALL
GASTEIGER

@<TRIPOS>ATOM
      1 C         139.3639  140.3163  166.1704 C.ar    1  UNL1        0.0828
      2 C         139.5354  138.9332  165.6155 C.ar    1  UNL1        0.0222
      3 C         139.3670  138.6888  164.1452 C.ar    1  UNL1        0.0382
      4 C         139.0273  139.8274  163.2297 C.ar    1  UNL1        0.1361
      5 C         138.8558  141.2104  163.7845 C.ar    1  UNL1        0.0372
      6 C         139.0241  141.4549  165.2549 C.ar    1  UNL1        0.0198
      7 C         138.5160  142.3490  162.8690 C.3     1  UNL1        0.1581
      8 C         138.1779  143.5796  162.0807 C.3     1  UNL1        0.2351
      9 O         138.1055  144.7355  163.0341 O.2     1  UNL1       -0.4478
     10 C         138.3988  144.2193  164.4116 C.2     1  UNL1        0.2770
     11 N         138.4326  145.0347  165.6701 N.pl3   1  UNL1       -0.3133
     12 N         138.6526  142.7444  164.3096 N.2     1  UNL1       -0.2202
     13 C         138.3477  142.1046  161.3987 C.3     1  UNL1        0.1141
     14 C         138.4425  141.7870  161.6541 C.3     1  UNL1        0.1501
     15 O         138.3428  142.1209  161.3856 O.3     1  UNL1       -0.3532
     16 C         138.4425  141.7870  161.6541 C.3     1  UNL1        0.1501
     17 C         138.5191  140.7216  160.8439 C.3     1  UNL1        0.1395
     18 C         138.1914  141.5782  159.6569 C.3     1  UNL1        0.0404
     19 C         138.2811  140.3760  158.7644 C.3     1  UNL1        0.0072
     20 C         138.6088  139.5194  159.9514 C.3     1  UNL1        0.0404
     21 O         138.8589  139.5830  161.7594 O.3     1  UNL1       -0.4826
     22 H         138.2514  146.0017  165.6350 H       1  UNL1        0.1466
     23 H         138.6358  144.6028  166.5311 H       1  UNL1        0.1466
     24 C         140.1844  141.5580  169.7551 C.ar    1  UNL1        0.0473
     25 C         139.3981  140.3155  170.0516 C.ar    1  UNL1        0.1202
     26 N         138.9950  139.6992  168.7449 N.ar    1  UNL1       -0.1637
     27 N         139.5322  140.5607  167.6407 N.ar    1  UNL1       -0.2284
     28 C         140.2673  141.7095  168.2651 C.ar    1  UNL1        0.1001
     29 C         140.7827  142.4860  170.7703 C.3     1  UNL1        0.1718
     30 C         143.2794  142.6126  170.0627 C.3     1  UNL1        0.1746
     31 O         141.9946  143.2983  170.4218 O.3     1  UNL1       -0.3462
@<TRIPOS>BOND
     1    30    31    1
     2    31    29    1
     3    29    24    1
     4    24    25   ar
     5    25    26   ar
     6    26    27   ar
     7    27     1    1
     8     1     2   ar
     9     2     3   ar
    10     3     4   ar
    11     4     5   ar
    12     5     6   ar
    13     5     7    1
    14     7     8    1
    15     8     9    1
    16     9    10    1
    17    10    11    1
    18    10    12    2
    19     7    13    1
    20    13    14    1
    21    14    15    1
    22    15    16    1
    23    13    17    1
    24    17    18    1
    25    18    19    1
    26    19    20    1
    27    17    21    1
    28    27    28   ar
    29    28    24   ar
    30     6     1   ar
    31    12     7    1
    32    16    13    1
    33    20    17    1
    34    21     4    1
    35    11    22    1
    36    11    23    1
@<TRIPOS>MOLECULE
*****
 31 36 0 0 0
SMALL
GASTEIGER

@<TRIPOS>ATOM
      1 C         142.7796  140.4593  163.9564 C.ar    1  UNL1        0.0828
      2 C         143.6327  141.4253  164.7239 C.ar    1  UNL1        0.0222
      3 C         143.2418  141.8305  166.1142 C.ar    1  UNL1        0.0382
      4 C         141.9978  141.2697  166.7371 C.ar    1  UNL1        0.1361
      5 C         141.1447  140.3037  165.9696 C.ar    1  UNL1        0.0372
      6 C         141.5356  139.8985  164.5792 C.ar    1  UNL1        0.0198
      7 C         139.9007  139.7429  166.5924 C.3     1  UNL1        0.1581
      8 C         138.6355  139.1025  167.0816 C.3     1  UNL1        0.2351
      9 O         138.1158  138.2114  165.9925 O.2     1  UNL1       -0.4478
     10 C         139.0597  138.3013  164.8302 C.2     1  UNL1        0.2770
     11 N         138.9244  137.5726  163.5262 N.pl3   1  UNL1       -0.3133
     12 N         140.1628  139.2478  165.2009 N.2     1  UNL1       -0.2202
     13 C         139.5098  140.1481  167.9827 C.3     1  UNL1        0.1141
     14 C         139.8568  140.3046  167.8090 C.3     1  UNL1        0.1501
     15 O         139.4920  140.1401  167.9916 O.3     1  UNL1       -0.3532
     16 C         139.8568  140.3046  167.8090 C.3     1  UNL1        0.1501
     17 C         140.3629  141.1141  168.7502 C.3     1  UNL1        0.1395
     18 C         139.2303  140.7773  169.6743 C.3     1  UNL1        0.0404
     19 C         139.8100  141.6871  170.7165 C.3     1  UNL1        0.0072
     20 C         140.9426  142.0239  169.7924 C.3     1  UNL1        0.0404
     21 O         141.6069  141.6749  168.1274 O.3     1  UNL1       -0.4826
     22 H         138.1609  136.9694  163.3762 H       1  UNL1        0.1466
     23 H         139.5990  137.6975  162.8201 H       1  UNL1        0.1466
     24 C         143.4970  140.0759  160.1613 C.ar    1  UNL1        0.0473
     25 C         144.0471  138.7853  160.6920 C.ar    1  UNL1        0.1202
     26 N         143.8453  138.7719  162.1783 N.ar    1  UNL1       -0.1637
     27 N         143.1705  140.0542  162.5661 N.ar    1  UNL1       -0.2284
     28 C         142.9553  140.8601  161.3195 C.ar    1  UNL1        0.1001
     29 C         143.4900  140.5067  158.7245 C.3     1  UNL1        0.1718
     30 C         145.2464  140.9096  156.8528 C.3     1  UNL1        0.1746
     31 O         144.5238  139.9746  157.7768 O.3     1  UNL1       -0.3462
@<TRIPOS>BOND
     1    30    31    1
     2    31    29    1
     3    29    24    1
     4    24    25   ar
     5    25    26   ar
     6    26    27   ar
     7    27     1    1
     8     1     2   ar
     9     2     3   ar
    10     3     4   ar
    11     4     5   ar
    12     5     6   ar
    13     5     7    1
    14     7     8    1
    15     8     9    1
    16     9    10    1
    17    10    11    1
    18    10    12    2
    19     7    13    1
    20    13    14    1
    21    14    15    1
    22    15    16    1
    23    13    17    1
    24    17    18    1
    25    18    19    1
    26    19    20    1
    27    17    21    1
    28    27    28   ar
    29    28    24   ar
    30     6     1   ar
    31    12     7    1
    32    16    13    1
    33    20    17    1
    34    21     4    1
    35    11    22    1
    36    11    23    1
@<TRIPOS>MOLECULE
*****
 31 36 0 0 0
SMALL
GASTEIGER

@<TRIPOS>ATOM
      1 C         141.3441  142.8621  163.8326 C.ar    1  UNL1        0.0828
      2 C         140.3242  143.6481  164.6023 C.ar    1  UNL1        0.0222
      3 C         139.9895  143.2637  166.0130 C.ar    1  UNL1        0.0382
      4 C         140.6745  142.0934  166.6541 C.ar    1  UNL1        0.1361
      5 C         141.6943  141.3075  165.8846 C.ar    1  UNL1        0.0372
      6 C         142.0291  141.6918  164.4738 C.ar    1  UNL1        0.0198
      7 C         142.3794  140.1372  166.5258 C.3     1  UNL1        0.1581
      8 C         143.1424  138.9491  167.0319 C.3     1  UNL1        0.2351
      9 O         144.0499  138.4789  165.9338 O.2     1  UNL1       -0.4478
     10 C         143.8477  139.3765  164.7492 C.2     1  UNL1        0.2770
     11 N         144.5539  139.2682  163.4303 N.pl3   1  UNL1       -0.3133
     12 N         142.8153  140.4014  165.1150 N.2     1  UNL1       -0.2202
     13 C         142.0446  139.7528  167.9365 C.3     1  UNL1        0.1141
     14 C         141.8535  140.0793  167.7576 C.3     1  UNL1        0.1501
     15 O         142.0544  139.7361  167.9456 O.3     1  UNL1       -0.3532
     16 C         141.8535  140.0793  167.7576 C.3     1  UNL1        0.1501
     17 C         141.0248  140.5388  168.7060 C.3     1  UNL1        0.1395
     18 C         141.4840  139.4684  169.6512 C.3     1  UNL1        0.0404
     19 C         140.5513  139.9952  170.7012 C.3     1  UNL1        0.0072
     20 C         140.0921  141.0656  169.7560 C.3     1  UNL1        0.0404
     21 O         140.3397  141.7091  168.0649 O.3     1  UNL1       -0.4826
     22 H         145.2193  138.5574  163.2851 H       1  UNL1        0.1466
     23 H         144.3519  139.9080  162.7098 H       1  UNL1        0.1466
     24 C         141.6459  144.3498  160.2604 C.ar    1  UNL1        0.0473
     25 C         142.7422  143.3262  160.2417 C.ar    1  UNL1        0.1202
     26 N         142.7625  142.6443  161.5776 N.ar    1  UNL1       -0.1637
     27 N         141.6789  143.2465  162.4219 N.ar    1  UNL1       -0.2284
     28 C         140.9888  144.3005  161.6079 C.ar    1  UNL1        0.1001
     29 C         141.2724  145.2624  159.1301 C.3     1  UNL1        0.1718
     30 C         142.1106  145.6923  156.7088 C.3     1  UNL1        0.1746
     31 O         142.3288  145.7646  158.1911 O.3     1  UNL1       -0.3462
@<TRIPOS>BOND
     1    30    31    1
     2    31    29    1
     3    29    24    1
     4    24    25   ar
     5    25    26   ar
     6    26    27   ar
     7    27     1    1
     8     1     2   ar
     9     2     3   ar
    10     3     4   ar
    11     4     5   ar
    12     5     6   ar
    13     5     7    1
    14     7     8    1
    15     8     9    1
    16     9    10    1
    17    10    11    1
    18    10    12    2
    19     7    13    1
    20    13    14    1
    21    14    15    1
    22    15    16    1
    23    13    17    1
    24    17    18    1
    25    18    19    1
    26    19    20    1
    27    17    21    1
    28    27    28   ar
    29    28    24   ar
    30     6     1   ar
    31    12     7    1
    32    16    13    1
    33    20    17    1
    34    21     4    1
    35    11    22    1
    36    11    23    1
@<TRIPOS>MOLECULE
*****
 31 36 0 0 0
SMALL
GASTEIGER

@<TRIPOS>ATOM
      1 C         143.0196  139.3273  162.7615 C.ar    1  UNL1        0.0828
      2 C         144.2702  139.2210  163.5831 C.ar    1  UNL1        0.0222
      3 C         144.1957  139.3158  165.0782 C.ar    1  UNL1        0.0382
      4 C         142.8706  139.5168  165.7519 C.ar    1  UNL1        0.1361
      5 C         141.6201  139.6230  164.9304 C.ar    1  UNL1        0.0372
      6 C         141.6945  139.5283  163.4352 C.ar    1  UNL1        0.0198
      7 C         140.2950  139.8240  165.6041 C.3     1  UNL1        0.1581
      8 C         138.9063  140.0246  166.1343 C.3     1  UNL1        0.2351
      9 O         137.9665  140.0729  164.9661 O.2     1  UNL1       -0.4478
     10 C         138.7745  139.9022  163.7139 C.2     1  UNL1        0.2770
     11 N         138.2377  139.8877  162.3134 N.pl3   1  UNL1       -0.3133
     12 N         140.2136  139.7483  164.1082 N.2     1  UNL1       -0.2202
     13 C         140.2205  139.9188  167.0993 C.3     1  UNL1        0.1141
     14 C         140.5902  139.8627  166.9113 C.3     1  UNL1        0.1501
     15 O         140.2016  139.9217  167.1089 O.3     1  UNL1       -0.3532
     16 C         140.5902  139.8627  166.9113 C.3     1  UNL1        0.1501
     17 C         141.4711  139.8126  167.9207 C.3     1  UNL1        0.1395
     18 C         140.3670  140.0050  168.9177 C.3     1  UNL1        0.0404
     19 C         141.3658  139.9466  170.0352 C.3     1  UNL1        0.0072
     20 C         142.4699  139.7541  169.0383 C.3     1  UNL1        0.0404
     21 O         142.7961  139.6116  167.2470 O.3     1  UNL1       -0.4826
     22 H         137.2722  139.9970  162.1551 H       1  UNL1        0.1466
     23 H         138.8510  139.7690  161.5524 H       1  UNL1        0.1466
     24 C         142.9118  138.3986  158.9945 C.ar    1  UNL1        0.0473
     25 C         143.5056  139.7748  158.9368 C.ar    1  UNL1        0.1202
     26 N         143.6183  140.2902  160.3410 N.ar    1  UNL1       -0.1637
     27 N         143.0941  139.2325  161.2664 N.ar    1  UNL1       -0.2284
     28 C         142.6575  138.0635  160.4343 C.ar    1  UNL1        0.1001
     29 C         142.6230  137.5131  157.8188 C.3     1  UNL1        0.1718
     30 C         143.7810  136.2062  155.8948 C.3     1  UNL1        0.1746
     31 O         143.5665  137.4826  156.6530 O.3     1  UNL1       -0.3462
@<TRIPOS>BOND
     1    30    31    1
     2    31    29    1
     3    29    24    1
     4    24    25   ar
     5    25    26   ar
     6    26    27   ar
     7    27     1    1
     8     1     2   ar
     9     2     3   ar
    10     3     4   ar
    11     4     5   ar
    12     5     6   ar
    13     5     7    1
    14     7     8    1
    15     8     9    1
    16     9    10    1
    17    10    11    1
    18    10    12    2
    19     7    13    1
    20    13    14    1
    21    14    15    1
    22    15    16    1
    23    13    17    1
    24    17    18    1
    25    18    19    1
    26    19    20    1
    27    17    21    1
    28    27    28   ar
    29    28    24   ar
    30     6     1   ar
    31    12     7    1
    32    16    13    1
    33    20    17    1
    34    21     4    1
    35    11    22    1
    36    11    23    1
@<TRIPOS>MOLECULE
*****
 31 36 0 0 0
SMALL
GASTEIGER

@<TRIPOS>ATOM
      1 C         139.3908  142.4543  162.3275 C.ar    1  UNL1        0.0828
      2 C         139.7704  143.7154  163.0456 C.ar    1  UNL1        0.0222
      3 C         139.9983  143.6947  164.5280 C.ar    1  UNL1        0.0382
      4 C         139.8465  142.4130  165.2924 C.ar    1  UNL1        0.1361
      5 C         139.4669  141.1520  164.5743 C.ar    1  UNL1        0.0372
      6 C         139.2391  141.1726  163.0918 C.ar    1  UNL1        0.0198
      7 C         139.3151  139.8703  165.3386 C.3     1  UNL1        0.1581
      8 C         139.1275  138.5207  165.9660 C.3     1  UNL1        0.2351
      9 O         138.7529  137.5537  164.8821 O.2     1  UNL1       -0.4478
     10 C         138.7090  138.3056  163.5849 C.2     1  UNL1        0.2770
     11 N         138.3761  137.7274  162.2416 N.pl3   1  UNL1       -0.3133
     12 N         139.0565  139.7373  163.8670 N.2     1  UNL1       -0.2202
     13 C         139.5430  139.8496  166.8210 C.3     1  UNL1        0.1141
     14 C         139.5853  140.2072  166.6078 C.3     1  UNL1        0.1501
     15 O         139.5408  139.8313  166.8319 O.3     1  UNL1       -0.3532
     16 C         139.5853  140.2072  166.6078 C.3     1  UNL1        0.1501
     17 C         139.9226  141.1106  167.5391 C.3     1  UNL1        0.1395
     18 C         139.8667  140.0579  168.6063 C.3     1  UNL1        0.0404
     19 C         140.2448  141.0814  169.6357 C.3     1  UNL1        0.0072
     20 C         140.3006  142.1340  168.5685 C.3     1  UNL1        0.0404
     21 O         140.0743  142.3923  166.7748 O.3     1  UNL1       -0.4826
     22 H         138.1602  136.7706  162.1573 H       1  UNL1        0.1466
     23 H         138.3735  138.3047  161.4441 H       1  UNL1        0.1466
     24 C         138.5992  141.7882  158.5865 C.ar    1  UNL1        0.0473
     25 C         139.0257  143.2256  158.5411 C.ar    1  UNL1        0.1202
     26 N         139.3741  143.6500  159.9369 N.ar    1  UNL1       -0.1637
     27 N         139.1630  142.4750  160.8450 N.ar    1  UNL1       -0.2284
     28 C         138.6841  141.3244  160.0105 C.ar    1  UNL1        0.1001
     29 C         138.1642  140.9601  157.4139 C.3     1  UNL1        0.1718
     30 C         139.7685  138.9198  157.2973 C.3     1  UNL1        0.1746
     31 O         138.3810  139.4759  157.4222 O.3     1  UNL1       -0.3462
@<TRIPOS>BOND
     1    30    31    1
     2    31    29    1
     3    29    24    1
     4    24    25   ar
     5    25    26   ar
     6    26    27   ar
     7    27     1    1
     8     1     2   ar
     9     2     3   ar
    10     3     4   ar
    11     4     5   ar
    12     5     6   ar
    13     5     7    1
    14     7     8    1
    15     8     9    1
    16     9    10    1
    17    10    11    1
    18    10    12    2
    19     7    13    1
    20    13    14    1
    21    14    15    1
    22    15    16    1
    23    13    17    1
    24    17    18    1
    25    18    19    1
    26    19    20    1
    27    17    21    1
    28    27    28   ar
    29    28    24   ar
    30     6     1   ar
    31    12     7    1
    32    16    13    1
    33    20    17    1
    34    21     4    1
    35    11    22    1
    36    11    23    1
@<TRIPOS>MOLECULE
*****
 31 36 0 0 0
SMALL
GASTEIGER

@<TRIPOS>ATOM
      1 C         141.9843  142.5500  163.7094 C.ar    1  UNL1        0.0828
      2 C         143.2717  142.9647  164.3581 C.ar    1  UNL1        0.0222
      3 C         143.5613  142.5634  165.7741 C.ar    1  UNL1        0.0382
      4 C         142.5636  141.7475  166.5414 C.ar    1  UNL1        0.1361
      5 C         141.2763  141.3327  165.8928 C.ar    1  UNL1        0.0372
      6 C         140.9866  141.7340  164.4767 C.ar    1  UNL1        0.0198
      7 C         140.2786  140.5168  166.6601 C.3     1  UNL1        0.1581
      8 C         139.1912  139.7044  167.2987 C.3     1  UNL1        0.2351
      9 O         138.0931  139.5272  166.2921 O.2     1  UNL1       -0.4478
     10 C         138.5019  140.2299  165.0316 C.2     1  UNL1        0.2770
     11 N         137.7007  140.3075  163.7659 N.pl3   1  UNL1       -0.3133
     12 N         139.8526  140.8415  165.2590 N.2     1  UNL1       -0.2202
     13 C         140.5682  140.1155  168.0761 C.3     1  UNL1        0.1141
     14 C         140.8466  140.3432  167.8620 C.3     1  UNL1        0.1501
     15 O         140.5540  140.1039  168.0871 O.3     1  UNL1       -0.3532
     16 C         140.8466  140.3432  167.8620 C.3     1  UNL1        0.1501
     17 C         141.8555  140.5302  168.7248 C.3     1  UNL1        0.1395
     18 C         141.1275  139.7441  169.7745 C.3     1  UNL1        0.0404
     19 C         142.2651  139.9628  170.7274 C.3     1  UNL1        0.0072
     20 C         142.9931  140.7489  169.6776 C.3     1  UNL1        0.0404
     21 O         142.8532  141.3462  167.9574 O.3     1  UNL1       -0.4826
     22 H         136.8197  139.8712  163.7135 H       1  UNL1        0.1466
     23 H         138.0559  140.7946  162.9876 H       1  UNL1        0.1466
     24 C         141.2897  144.2913  160.3108 C.ar    1  UNL1        0.0473
     25 C         141.2083  142.8460  159.9179 C.ar    1  UNL1        0.1202
     26 N         141.4585  142.0177  161.1432 N.ar    1  UNL1       -0.1637
     27 N         141.6947  142.9512  162.2934 N.ar    1  UNL1       -0.2284
     28 C         141.5904  144.3563  161.7789 C.ar    1  UNL1        0.1001
     29 C         141.1033  145.4654  159.3962 C.3     1  UNL1        0.1718
     30 C         142.0120  145.7217  156.9757 C.3     1  UNL1        0.1746
     31 O         142.2018  145.8661  158.4566 O.3     1  UNL1       -0.3462
@<TRIPOS>BOND
     1    30    31    1
     2    31    29    1
     3    29    24    1
     4    24    25   ar
     5    25    26   ar
     6    26    27   ar
     7    27     1    1
     8     1     2   ar
     9     2     3   ar
    10     3     4   ar
    11     4     5   ar
    12     5     6   ar
    13     5     7    1
    14     7     8    1
    15     8     9    1
    16     9    10    1
    17    10    11    1
    18    10    12    2
    19     7    13    1
    20    13    14    1
    21    14    15    1
    22    15    16    1
    23    13    17    1
    24    17    18    1
    25    18    19    1
    26    19    20    1
    27    17    21    1
    28    27    28   ar
    29    28    24   ar
    30     6     1   ar
    31    12     7    1
    32    16    13    1
    33    20    17    1
    34    21     4    1
    35    11    22    1
    36    11    23    1
@<TRIPOS>MOLECULE
*****
 31 36 0 0 0
SMALL
GASTEIGER

@<TRIPOS>ATOM
      1 C         139.6775  142.8434  162.5390 C.ar    1  UNL1        0.0828
      2 C         140.1501  144.0341  163.3194 C.ar    1  UNL1        0.0222
      3 C         140.3402  143.9308  164.8037 C.ar    1  UNL1        0.0382
      4 C         140.0577  142.6368  165.5077 C.ar    1  UNL1        0.1361
      5 C         139.5852  141.4461  164.7274 C.ar    1  UNL1        0.0372
      6 C         139.3951  141.5493  163.2431 C.ar    1  UNL1        0.0198
      7 C         139.3027  140.1520  165.4315 C.3     1  UNL1        0.1581
      8 C         138.9818  138.7994  165.9950 C.3     1  UNL1        0.2351
      9 O         138.5488  137.9162  164.8624 O.2     1  UNL1       -0.4478
     10 C         138.6021  138.7229  163.5990 C.2     1  UNL1        0.2770
     11 N         138.2512  138.2339  162.2251 N.pl3   1  UNL1       -0.3133
     12 N         139.0681  140.1048  163.9506 N.2     1  UNL1       -0.2202
     13 C         139.4928  140.0487  166.9157 C.3     1  UNL1        0.1141
     14 C         139.5716  140.4097  166.7193 C.3     1  UNL1        0.1501
     15 O         139.4888  140.0302  166.9258 O.3     1  UNL1       -0.3532
     16 C         139.5716  140.4097  166.7193 C.3     1  UNL1        0.1501
     17 C         139.9654  141.2394  167.6960 C.3     1  UNL1        0.1395
     18 C         139.7916  140.1519  168.7145 C.3     1  UNL1        0.0404
     19 C         140.2342  141.0933  169.7952 C.3     1  UNL1        0.0072
     20 C         140.4080  142.1807  168.7767 C.3     1  UNL1        0.0404
     21 O         140.2478  142.5334  166.9920 O.3     1  UNL1       -0.4826
     22 H         137.9536  137.3045  162.0946 H       1  UNL1        0.1466
     23 H         138.3184  138.8422  161.4540 H       1  UNL1        0.1466
     24 C         139.6029  143.7349  158.7622 C.ar    1  UNL1        0.0473
     25 C         138.7869  142.4765  158.7791 C.ar    1  UNL1        0.1202
     26 N         138.7155  141.9893  160.1960 N.ar    1  UNL1       -0.1637
     27 N         139.4874  142.9467  161.0548 N.ar    1  UNL1       -0.2284
     28 C         140.0358  144.0255  160.1686 C.ar    1  UNL1        0.1001
     29 C         139.9287  144.5582  157.5514 C.3     1  UNL1        0.1718
     30 C         142.1121  145.9661  157.5841 C.3     1  UNL1        0.1746
     31 O         140.6197  145.8805  157.7072 O.3     1  UNL1       -0.3462
@<TRIPOS>BOND
     1    30    31    1
     2    31    29    1
     3    29    24    1
     4    24    25   ar
     5    25    26   ar
     6    26    27   ar
     7    27     1    1
     8     1     2   ar
     9     2     3   ar
    10     3     4   ar
    11     4     5   ar
    12     5     6   ar
    13     5     7    1
    14     7     8    1
    15     8     9    1
    16     9    10    1
    17    10    11    1
    18    10    12    2
    19     7    13    1
    20    13    14    1
    21    14    15    1
    22    15    16    1
    23    13    17    1
    24    17    18    1
    25    18    19    1
    26    19    20    1
    27    17    21    1
    28    27    28   ar
    29    28    24   ar
    30     6     1   ar
    31    12     7    1
    32    16    13    1
    33    20    17    1
    34    21     4    1
    35    11    22    1
    36    11    23    1
@<TRIPOS>MOLECULE
*****
 31 36 0 0 0
SMALL
GASTEIGER

@<TRIPOS>ATOM
      1 C         139.1738  142.8923  161.6415 C.ar    1  UNL1        0.0828
      2 C         138.4063  143.4784  162.7894 C.ar    1  UNL1        0.0222
      3 C         138.0284  142.6160  163.9571 C.ar    1  UNL1        0.0382
      4 C         138.4180  141.1676  163.9770 C.ar    1  UNL1        0.1361
      5 C         139.1854  140.5816  162.8292 C.ar    1  UNL1        0.0372
      6 C         139.5633  141.4439  161.6614 C.ar    1  UNL1        0.0198
      7 C         139.5750  139.1332  162.8491 C.3     1  UNL1        0.1581
      8 C         140.0315  137.7094  162.7291 C.3     1  UNL1        0.2351
      9 O         140.7593  137.5642  161.4255 O.2     1  UNL1       -0.4478
     10 C         140.7526  138.8983  160.7398 C.2     1  UNL1        0.2770
     11 N         141.3695  139.2083  159.4082 N.pl3   1  UNL1       -0.3133
     12 N         140.0206  139.8680  161.6196 N.2     1  UNL1       -0.2202
     13 C         139.1971  138.2708  164.0168 C.3     1  UNL1        0.1141
     14 C         139.0884  138.6750  164.0112 C.3     1  UNL1        0.1501
     15 O         139.2026  138.2502  164.0171 O.3     1  UNL1       -0.3532
     16 C         139.0884  138.6750  164.0112 C.3     1  UNL1        0.1501
     17 C         138.4296  138.8569  165.1646 C.3     1  UNL1        0.1395
     18 C         138.6347  137.4166  165.5299 C.3     1  UNL1        0.0404
     19 C         137.8952  137.6374  166.8161 C.3     1  UNL1        0.0072
     20 C         137.6901  139.0777  166.4508 C.3     1  UNL1        0.0404
     21 O         138.0401  140.3053  165.1447 O.3     1  UNL1       -0.4826
     22 H         141.8315  138.5007  158.9031 H       1  UNL1        0.1466
     23 H         141.3125  140.1193  159.0394 H       1  UNL1        0.1466
     24 C         140.0022  144.5085  158.2113 C.ar    1  UNL1        0.0473
     25 C         140.2641  145.6548  159.1426 C.ar    1  UNL1        0.1202
     26 N         139.9857  145.1889  160.5409 N.ar    1  UNL1       -0.1637
     27 N         139.5516  143.7546  160.4738 N.ar    1  UNL1       -0.2284
     28 C         139.5619  143.3341  159.0341 C.ar    1  UNL1        0.1001
     29 C         140.1539  144.5323  156.7192 C.3     1  UNL1        0.1718
     30 C         138.9432  146.5597  155.6355 C.3     1  UNL1        0.1746
     31 O         139.0521  145.0809  155.8618 O.3     1  UNL1       -0.3462
@<TRIPOS>BOND
     1    30    31    1
     2    31    29    1
     3    29    24    1
     4    24    25   ar
     5    25    26   ar
     6    26    27   ar
     7    27     1    1
     8     1     2   ar
     9     2     3   ar
    10     3     4   ar
    11     4     5   ar
    12     5     6   ar
    13     5     7    1
    14     7     8    1
    15     8     9    1
    16     9    10    1
    17    10    11    1
    18    10    12    2
    19     7    13    1
    20    13    14    1
    21    14    15    1
    22    15    16    1
    23    13    17    1
    24    17    18    1
    25    18    19    1
    26    19    20    1
    27    17    21    1
    28    27    28   ar
    29    28    24   ar
    30     6     1   ar
    31    12     7    1
    32    16    13    1
    33    20    17    1
    34    21     4    1
    35    11    22    1
    36    11    23    1
@<TRIPOS>MOLECULE
*****
 31 36 0 0 0
SMALL
GASTEIGER

@<TRIPOS>ATOM
      1 C         142.6386  139.2924  166.3516 C.ar    1  UNL1        0.0828
      2 C         144.0320  139.1044  165.8288 C.ar    1  UNL1        0.0222
      3 C         144.2558  138.8358  164.3701 C.ar    1  UNL1        0.0382
      4 C         143.0864  138.7552  163.4342 C.ar    1  UNL1        0.1361
      5 C         141.6931  138.9431  163.9570 C.ar    1  UNL1        0.0372
      6 C         141.4692  139.2118  165.4157 C.ar    1  UNL1        0.0198
      7 C         140.5237  138.8625  163.0211 C.3     1  UNL1        0.1581
      8 C         139.2630  138.8099  162.2099 C.3     1  UNL1        0.2351
      9 O         138.1065  139.0510  163.1343 O.2     1  UNL1       -0.4478
     10 C         138.6524  139.2526  164.5168 C.2     1  UNL1        0.2770
     11 N         137.8461  139.5232  165.7523 N.pl3   1  UNL1       -0.3133
     12 N         140.1463  139.1362  164.4469 N.2     1  UNL1       -0.2202
     13 C         140.7475  138.5939  161.5624 C.3     1  UNL1        0.1141
     14 C         141.0738  138.6164  161.8235 C.3     1  UNL1        0.1501
     15 O         140.7308  138.5928  161.5491 O.3     1  UNL1       -0.3532
     16 C         141.0738  138.6164  161.8235 C.3     1  UNL1        0.1501
     17 C         142.1408  138.4059  161.0397 C.3     1  UNL1        0.1395
     18 C         141.2529  138.2598  159.8395 C.3     1  UNL1        0.0404
     19 C         142.4575  138.0260  158.9767 C.3     1  UNL1        0.0072
     20 C         143.3454  138.1722  160.1769 C.3     1  UNL1        0.0404
     21 O         143.3103  138.4866  161.9756 O.3     1  UNL1       -0.4826
     22 H         136.8649  139.5821  165.6967 H       1  UNL1        0.1466
     23 H         138.2980  139.6419  166.6188 H       1  UNL1        0.1466
     24 C         141.6436  140.5659  169.8804 C.ar    1  UNL1        0.0473
     25 C         142.4969  139.3827  170.2293 C.ar    1  UNL1        0.1202
     26 N         142.9735  138.7616  168.9498 N.ar    1  UNL1       -0.1637
     27 N         142.4148  139.5610  167.8102 N.ar    1  UNL1       -0.2284
     28 C         141.5929  140.6761  168.3854 C.ar    1  UNL1        0.1001
     29 C         140.9610  141.4787  170.8555 C.3     1  UNL1        0.1718
     30 C         140.3510  143.8448  169.9723 C.3     1  UNL1        0.1746
     31 O         141.2214  142.9552  170.8095 O.3     1  UNL1       -0.3462
@<TRIPOS>BOND
     1    30    31    1
     2    31    29    1
     3    29    24    1
     4    24    25   ar
     5    25    26   ar
     6    26    27   ar
     7    27     1    1
     8     1     2   ar
     9     2     3   ar
    10     3     4   ar
    11     4     5   ar
    12     5     6   ar
    13     5     7    1
    14     7     8    1
    15     8     9    1
    16     9    10    1
    17    10    11    1
    18    10    12    2
    19     7    13    1
    20    13    14    1
    21    14    15    1
    22    15    16    1
    23    13    17    1
    24    17    18    1
    25    18    19    1
    26    19    20    1
    27    17    21    1
    28    27    28   ar
    29    28    24   ar
    30     6     1   ar
    31    12     7    1
    32    16    13    1
    33    20    17    1
    34    21     4    1
    35    11    22    1
    36    11    23    1
