@<TRIPOS>MOLECULE
*****
 39 41 0 0 0
SMALL
GASTEIGER

@<TRIPOS>ATOM
      1 N         142.8804  143.5839  159.8853 N.am    1  UNL1       -0.2531
      2 C         142.4071  143.4568  161.3030 C.2     1  UNL1        0.3135
      3 O         141.0269  143.9101  161.6764 O.2     1  UNL1       -0.2518
      4 N         143.3142  142.8763  162.3473 N.am    1  UNL1       -0.2282
      5 C         144.6944  142.4230  161.9738 C.3     1  UNL1        0.1015
      6 C         145.6013  141.8426  163.0181 C.3     1  UNL1        0.0268
      7 C         145.1281  141.7155  164.4358 C.3     1  UNL1        0.0310
      8 C         143.7479  142.1688  164.8092 C.ar    1  UNL1        0.0096
      9 C         143.2746  142.0417  166.2269 C.ar    1  UNL1       -0.0025
     10 C         141.8944  142.4950  166.6004 C.ar    1  UNL1        0.0184
     11 CA        140.9874  143.0755  165.5561 C.ar    1  UNL1        0.1224
     12 N         141.4606  143.2026  164.1384 N.ar    1  UNL1       -0.2275
     13 C         142.8409  142.7492  163.7650 C.ar    1  UNL1        0.1345
     14 H         143.7863  143.2863  159.6402 H       1  UNL1        0.1578
     15 C         139.9826  143.9020  157.1924 C.ar    1  UNL1        0.1525
     16 C         140.8895  143.3216  158.2367 C.ar    1  UNL1        0.0721
     17 C         141.9734  144.1643  158.8410 C.ar    1  UNL1        0.1384
     18 N         142.1503  145.5873  158.4010 N.ar    1  UNL1       -0.2281
     19 C         141.2433  146.1677  157.3567 C.ar    1  UNL1        0.1136
     20 C         140.1595  145.3251  156.7525 C.ar    1  UNL1        0.1215
     21 C         139.2525  145.9055  155.7082 C.1     1  UNL1        0.1051
     22 N         138.3455  146.4859  154.6639 N.1     1  UNL1       -0.1907
     23 O         138.8988  143.0593  156.5882 O.3     1  UNL1       -0.4719
     24 C         137.7855  142.5391  157.4485 C.3     1  UNL1        0.2373
     25 C         137.2843  141.1379  157.2603 C.3     1  UNL1        0.1894
     26 C         138.3411  140.3686  159.5056 C.3     1  UNL1        0.1743
     27 O         137.3586  140.1564  158.3922 O.3     1  UNL1       -0.3471
     28 C         139.6072  143.5288  165.9295 C.2     1  UNL1        0.2529
     29 O         139.0200  144.7511  165.2883 O.2     1  UNL1       -0.2815
     30 C         141.4211  142.3679  168.0181 C.3     1  UNL1        0.1218
     31 N         141.6713  141.1013  168.7816 N.am    1  UNL1       -0.2739
     32 C         142.8226  141.0180  169.7395 C.2     1  UNL1        0.2264
     33 C         143.0728  139.7513  170.5031 C.3     1  UNL1        0.0948
     34 O         143.7237  142.2013  169.9339 O.2     1  UNL1       -0.2748
     35 C         140.7703  139.9179  168.5872 C.3     1  UNL1        0.1110
     36 C         139.5145  140.0563  167.7785 C.3     1  UNL1        0.0939
     37 N         139.5187  139.7038  166.3205 N.3     1  UNL1       -0.2688
     38 C         138.2905  139.9322  165.4902 C.3     1  UNL1        0.0897
     39 C         140.7511  139.1230  165.6929 C.3     1  UNL1        0.0897
@<TRIPOS>BOND
     1    26    27    1
     2    27    25    1
     3    25    24    1
     4    24    23    1
     5    23    15    1
     6    15    16   ar
     7    16    17   ar
     8    17     1    1
     9     1     2   am
    10     2     3    2
    11     2     4   am
    12     4     5    1
    13     5     6    1
    14     6     7    1
    15     7     8    1
    16     8     9   ar
    17     9    10   ar
    18    10    30    1
    19    30    31    1
    20    31    35    1
    21    35    36    1
    22    36    37    1
    23    37    38    1
    24    37    39    1
    25    31    32   am
    26    32    33    1
    27    32    34    2
    28    10    11   ar
    29    11    28    1
    30    28    29    2
    31    11    12   ar
    32    12    13   ar
    33    17    18   ar
    34    18    19   ar
    35    19    20   ar
    36    20    21    1
    37    21    22    3
    38    20    15   ar
    39    13     4    1
    40    13     8   ar
    41     1    14    1
@<TRIPOS>MOLECULE
*****
 39 41 0 0 0
SMALL
GASTEIGER

@<TRIPOS>ATOM
      1 N         139.7364  144.7222  160.1253 N.am    1  UNL1       -0.2531
      2 C         140.5154  144.1819  161.2878 C.2     1  UNL1        0.3135
      3 O         141.9455  143.7681  161.1049 O.2     1  UNL1       -0.2518
      4 N         139.8641  144.0555  162.6332 N.am    1  UNL1       -0.2282
      5 C         138.4340  144.4693  162.8160 C.3     1  UNL1        0.1015
      6 C         137.7829  144.3429  164.1613 C.3     1  UNL1        0.0268
      7 C         138.5618  143.8026  165.3238 C.3     1  UNL1        0.0310
      8 C         139.9919  143.3887  165.1410 C.ar    1  UNL1        0.0096
      9 C         140.7709  142.8485  166.3034 C.ar    1  UNL1       -0.0025
     10 C         142.2010  142.4346  166.1206 C.ar    1  UNL1        0.0184
     11 CA        142.8522  142.5610  164.7752 C.ar    1  UNL1        0.1224
     12 N         142.0733  143.1013  163.6127 N.ar    1  UNL1       -0.2275
     13 C         140.6431  143.5152  163.7956 C.ar    1  UNL1        0.1345
     14 H         138.7978  144.9938  160.2453 H       1  UNL1        0.1578
     15 C         140.4874  144.2214  156.2607 C.ar    1  UNL1        0.1525
     16 C         139.8362  144.0950  157.6060 C.ar    1  UNL1        0.0721
     17 C         140.3876  144.8486  158.7800 C.ar    1  UNL1        0.1384
     18 N         141.5901  145.7287  158.6085 N.ar    1  UNL1       -0.2281
     19 C         142.2413  145.8551  157.2631 C.ar    1  UNL1        0.1136
     20 C         141.6899  145.1015  156.0892 C.ar    1  UNL1        0.1215
     21 C         142.3411  145.2279  154.7439 C.1     1  UNL1        0.1051
     22 N         142.9922  145.3544  153.3985 N.1     1  UNL1       -0.1907
     23 O         139.9360  143.4678  155.0868 O.3     1  UNL1       -0.4719
     24 C         138.9033  144.1045  154.2048 C.3     1  UNL1        0.2373
     25 C         137.7719  144.8792  154.8131 C.3     1  UNL1        0.1894
     26 C         136.4322  142.7110  155.3169 C.3     1  UNL1        0.1743
     27 O         136.6996  144.1633  155.5797 O.3     1  UNL1       -0.3471
     28 C         144.2823  142.1472  164.5923 C.2     1  UNL1        0.2529
     29 O         144.8597  142.0336  163.2125 O.2     1  UNL1       -0.2815
     30 C         142.9799  141.8943  167.2830 C.3     1  UNL1        0.1218
     31 N         142.6375  140.5510  167.8559 N.am    1  UNL1       -0.2739
     32 C         142.7938  140.3010  169.3266 C.2     1  UNL1        0.2264
     33 C         142.4513  138.9577  169.8996 C.3     1  UNL1        0.0948
     34 O         143.2925  141.3943  170.2244 O.2     1  UNL1       -0.2748
     35 C         142.1388  139.4578  166.9581 C.3     1  UNL1        0.1110
     36 C         143.0777  138.7883  165.9989 C.3     1  UNL1        0.0939
     37 N         142.5791  138.3231  164.6628 N.3     1  UNL1       -0.2688
     38 C         141.3512  137.4657  164.5774 C.3     1  UNL1        0.0897
     39 C         143.3084  138.7153  163.4121 C.3     1  UNL1        0.0897
@<TRIPOS>BOND
     1    26    27    1
     2    27    25    1
     3    25    24    1
     4    24    23    1
     5    23    15    1
     6    15    16   ar
     7    16    17   ar
     8    17     1    1
     9     1     2   am
    10     2     3    2
    11     2     4   am
    12     4     5    1
    13     5     6    1
    14     6     7    1
    15     7     8    1
    16     8     9   ar
    17     9    10   ar
    18    10    30    1
    19    30    31    1
    20    31    35    1
    21    35    36    1
    22    36    37    1
    23    37    38    1
    24    37    39    1
    25    31    32   am
    26    32    33    1
    27    32    34    2
    28    10    11   ar
    29    11    28    1
    30    28    29    2
    31    11    12   ar
    32    12    13   ar
    33    17    18   ar
    34    18    19   ar
    35    19    20   ar
    36    20    21    1
    37    21    22    3
    38    20    15   ar
    39    13     4    1
    40    13     8   ar
    41     1    14    1
@<TRIPOS>MOLECULE
*****
 39 41 0 0 0
SMALL
GASTEIGER

@<TRIPOS>ATOM
      1 N         140.8920  138.5750  158.9637 N.am    1  UNL1       -0.2531
      2 C         141.5021  138.6824  160.3297 C.2     1  UNL1        0.3135
      3 O         142.9586  139.0092  160.4770 O.2     1  UNL1       -0.2518
      4 N         140.6557  138.4628  161.5486 N.am    1  UNL1       -0.2282
      5 C         139.1992  138.1359  161.4013 C.3     1  UNL1        0.1015
      6 C         138.3529  137.9164  162.6201 C.3     1  UNL1        0.0268
      7 C         138.9631  138.0238  163.9861 C.3     1  UNL1        0.0310
      8 C         140.4195  138.3507  164.1334 C.ar    1  UNL1        0.0096
      9 C         141.0297  138.4580  165.4995 C.ar    1  UNL1       -0.0025
     10 C         142.4862  138.7849  165.6468 C.ar    1  UNL1        0.0184
     11 CA        143.3326  139.0044  164.4280 C.ar    1  UNL1        0.1224
     12 N         142.7225  138.8971  163.0619 N.ar    1  UNL1       -0.2275
     13 C         141.2659  138.5702  162.9147 C.ar    1  UNL1        0.1345
     14 H         139.9360  138.3604  158.8670 H       1  UNL1        0.1578
     15 C         143.5399  137.9492  156.0746 C.ar    1  UNL1        0.1525
     16 C         142.6936  137.7297  157.2933 C.ar    1  UNL1        0.0721
     17 C         141.7383  138.7945  157.7449 C.ar    1  UNL1        0.1384
     18 N         141.6295  140.0788  156.9776 N.ar    1  UNL1       -0.2281
     19 C         142.4759  140.2983  155.7587 C.ar    1  UNL1        0.1136
     20 C         143.4310  139.2335  155.3072 C.ar    1  UNL1        0.1215
     21 C         144.2774  139.4530  154.0885 C.1     1  UNL1        0.1051
     22 N         145.1237  139.6726  152.8696 N.1     1  UNL1       -0.1907
     23 O         144.4951  136.8845  155.6231 O.3     1  UNL1       -0.4719
     24 C         143.9816  135.5253  155.2502 C.3     1  UNL1        0.2373
     25 C         143.1440  134.7475  156.2217 C.3     1  UNL1        0.1894
     26 C         144.4738  133.1028  157.7305 C.3     1  UNL1        0.1743
     27 O         143.7015  134.3779  157.5643 O.3     1  UNL1       -0.3471
     28 C         144.7891  139.3313  164.5753 C.2     1  UNL1        0.2529
     29 O         145.3620  140.5324  163.8829 O.2     1  UNL1       -0.2815
     30 C         143.0963  138.8923  167.0129 C.3     1  UNL1        0.1218
     31 N         142.6139  139.9422  167.9694 N.am    1  UNL1       -0.2739
     32 C         142.5424  139.6432  169.4375 C.2     1  UNL1        0.2264
     33 C         142.0600  140.6932  170.3941 C.3     1  UNL1        0.0948
     34 O         142.9534  138.2944  169.9492 O.2     1  UNL1       -0.2748
     35 C         142.2029  141.2910  167.4577 C.3     1  UNL1        0.1110
     36 C         143.2229  142.2022  166.8420 C.3     1  UNL1        0.0939
     37 N         143.0287  142.7093  165.4437 N.3     1  UNL1       -0.2688
     38 C         144.0355  143.6415  164.8374 C.3     1  UNL1        0.0897
     39 C         141.8279  142.2842  164.6518 C.3     1  UNL1        0.0897
@<TRIPOS>BOND
     1    26    27    1
     2    27    25    1
     3    25    24    1
     4    24    23    1
     5    23    15    1
     6    15    16   ar
     7    16    17   ar
     8    17     1    1
     9     1     2   am
    10     2     3    2
    11     2     4   am
    12     4     5    1
    13     5     6    1
    14     6     7    1
    15     7     8    1
    16     8     9   ar
    17     9    10   ar
    18    10    30    1
    19    30    31    1
    20    31    35    1
    21    35    36    1
    22    36    37    1
    23    37    38    1
    24    37    39    1
    25    31    32   am
    26    32    33    1
    27    32    34    2
    28    10    11   ar
    29    11    28    1
    30    28    29    2
    31    11    12   ar
    32    12    13   ar
    33    17    18   ar
    34    18    19   ar
    35    19    20   ar
    36    20    21    1
    37    21    22    3
    38    20    15   ar
    39    13     4    1
    40    13     8   ar
    41     1    14    1
@<TRIPOS>MOLECULE
*****
 39 41 0 0 0
SMALL
GASTEIGER

@<TRIPOS>ATOM
      1 N         143.2619  138.1082  157.1772 N.am    1  UNL1       -0.2531
      2 C         142.1596  138.6714  158.0245 C.2     1  UNL1        0.3135
      3 O         140.8429  137.9584  158.1132 O.2     1  UNL1       -0.2518
      4 N         142.3742  139.9476  158.7831 N.am    1  UNL1       -0.2282
      5 C         143.6909  140.6605  158.6945 C.3     1  UNL1        0.1015
      6 C         143.9054  141.9366  159.4531 C.3     1  UNL1        0.0268
      7 C         142.8031  142.4997  160.3004 C.3     1  UNL1        0.0310
      8 C         141.4864  141.7868  160.3891 C.ar    1  UNL1        0.0096
      9 C         140.3841  142.3499  161.2364 C.ar    1  UNL1       -0.0025
     10 C         139.0674  141.6370  161.3250 C.ar    1  UNL1        0.0184
     11 CA        138.8529  140.3608  160.5664 C.ar    1  UNL1        0.1224
     12 N         139.9552  139.7977  159.7191 N.ar    1  UNL1       -0.2275
     13 C         141.2719  140.5107  159.6304 C.ar    1  UNL1        0.1345
     14 H         144.1261  138.5762  157.1190 H       1  UNL1        0.1578
     15 C         142.8538  134.2415  156.3823 C.ar    1  UNL1        0.1525
     16 C         143.0683  135.5176  157.1409 C.ar    1  UNL1        0.0721
     17 C         143.0474  136.8321  156.4186 C.ar    1  UNL1        0.1384
     18 N         142.8121  136.8705  154.9377 N.ar    1  UNL1       -0.2281
     19 C         142.5976  135.5943  154.1791 C.ar    1  UNL1        0.1136
     20 C         142.6185  134.2798  154.9014 C.ar    1  UNL1        0.1215
     21 C         142.4040  133.0037  154.1428 C.1     1  UNL1        0.1051
     22 N         142.1895  131.7276  153.3841 N.1     1  UNL1       -0.1907
     23 O         142.8746  132.9271  157.1047 O.3     1  UNL1       -0.4719
     24 C         144.1839  132.2920  157.4687 C.3     1  UNL1        0.2373
     25 C         145.0710  131.7342  156.3954 C.3     1  UNL1        0.1894
     26 C         143.4546  129.7231  156.0912 C.3     1  UNL1        0.1743
     27 O         144.7485  130.4100  155.7688 O.3     1  UNL1       -0.3471
     28 C         137.5362  139.6479  160.6551 C.2     1  UNL1        0.2529
     29 O         137.3697  138.4950  161.6003 O.2     1  UNL1       -0.2815
     30 C         137.9652  142.2001  162.1723 C.3     1  UNL1        0.1218
     31 N         138.2725  142.7529  163.5325 N.am    1  UNL1       -0.2739
     32 C         138.3765  144.2357  163.7334 C.2     1  UNL1        0.2264
     33 C         138.6838  144.7886  165.0936 C.3     1  UNL1        0.0948
     34 O         138.1732  145.1657  162.5742 O.2     1  UNL1       -0.2748
     35 C         138.4758  141.8229  164.6916 C.3     1  UNL1        0.1110
     36 C         138.1114  140.3735  164.5632 C.3     1  UNL1        0.0939
     37 N         139.1869  139.3424  164.3891 N.3     1  UNL1       -0.2688
     38 C         138.8961  137.8994  164.6777 C.3     1  UNL1        0.0897
     39 C         140.5530  139.7543  163.9265 C.3     1  UNL1        0.0897
@<TRIPOS>BOND
     1    26    27    1
     2    27    25    1
     3    25    24    1
     4    24    23    1
     5    23    15    1
     6    15    16   ar
     7    16    17   ar
     8    17     1    1
     9     1     2   am
    10     2     3    2
    11     2     4   am
    12     4     5    1
    13     5     6    1
    14     6     7    1
    15     7     8    1
    16     8     9   ar
    17     9    10   ar
    18    10    30    1
    19    30    31    1
    20    31    35    1
    21    35    36    1
    22    36    37    1
    23    37    38    1
    24    37    39    1
    25    31    32   am
    26    32    33    1
    27    32    34    2
    28    10    11   ar
    29    11    28    1
    30    28    29    2
    31    11    12   ar
    32    12    13   ar
    33    17    18   ar
    34    18    19   ar
    35    19    20   ar
    36    20    21    1
    37    21    22    3
    38    20    15   ar
    39    13     4    1
    40    13     8   ar
    41     1    14    1
@<TRIPOS>MOLECULE
*****
 39 41 0 0 0
SMALL
GASTEIGER

@<TRIPOS>ATOM
      1 N         138.7961  142.8575  159.4761 N.am    1  UNL1       -0.2531
      2 C         138.9238  142.1361  160.7850 C.2     1  UNL1        0.3135
      3 O         138.8098  140.6412  160.8318 O.2     1  UNL1       -0.2518
      4 N         139.1657  142.9098  162.0472 N.am    1  UNL1       -0.2282
      5 C         139.2797  144.4047  162.0004 C.3     1  UNL1        0.1015
      6 C         139.5216  145.1783  163.2626 C.3     1  UNL1        0.0268
      7 C         139.6493  144.4569  164.5715 C.3     1  UNL1        0.0310
      8 C         139.5353  142.9620  164.6183 C.ar    1  UNL1        0.0096
      9 C         139.6630  142.2407  165.9273 C.ar    1  UNL1       -0.0025
     10 C         139.5490  140.7458  165.9741 C.ar    1  UNL1        0.0184
     11 CA        139.3071  139.9722  164.7119 C.ar    1  UNL1        0.1224
     12 N         139.1794  140.6935  163.4029 N.ar    1  UNL1       -0.2275
     13 C         139.2934  142.1885  163.3562 C.ar    1  UNL1        0.1345
     14 H         138.8710  143.8386  159.4454 H       1  UNL1        0.1578
     15 C         137.0771  141.5662  156.1403 C.ar    1  UNL1        0.1525
     16 C         137.3189  142.3398  157.4024 C.ar    1  UNL1        0.0721
     17 C         138.5543  142.0839  158.2139 C.ar    1  UNL1        0.1384
     18 N         139.5478  141.0544  157.7632 N.ar    1  UNL1       -0.2281
     19 C         139.3059  140.2808  156.5010 C.ar    1  UNL1        0.1136
     20 C         138.0706  140.5367  155.6896 C.ar    1  UNL1        0.1215
     21 C         137.8288  139.7631  154.4274 C.1     1  UNL1        0.1051
     22 N         137.5869  138.9895  153.1652 N.1     1  UNL1       -0.1907
     23 O         135.8418  141.8221  155.3288 O.3     1  UNL1       -0.4719
     24 C         134.5576  141.1307  155.6792 C.3     1  UNL1        0.2373
     25 C         134.3425  139.7008  155.2799 C.3     1  UNL1        0.1894
     26 C         132.5846  138.7644  156.9480 C.3     1  UNL1        0.1743
     27 O         133.9396  138.6871  156.3095 O.3     1  UNL1       -0.3471
     28 C         139.1931  138.4773  164.7587 C.2     1  UNL1        0.2529
     29 O         139.2298  137.6821  163.4873 O.2     1  UNL1       -0.2815
     30 C         139.6767  140.0245  167.2831 C.3     1  UNL1        0.1218
     31 N         141.0011  139.9740  167.9854 N.am    1  UNL1       -0.2739
     32 C         141.0544  139.7943  169.4736 C.2     1  UNL1        0.2264
     33 C         142.3789  139.7438  170.1761 C.3     1  UNL1        0.0948
     34 O         139.7833  139.6651  170.2595 O.2     1  UNL1       -0.2748
     35 C         142.2722  140.1032  167.1996 C.3     1  UNL1        0.1110
     36 C         142.6259  139.0709  166.1704 C.3     1  UNL1        0.0939
     37 N         142.7886  139.4694  164.7335 N.3     1  UNL1       -0.2688
     38 C         142.9516  140.9156  164.3701 C.3     1  UNL1        0.0897
     39 C         142.7884  138.4218  163.6600 C.3     1  UNL1        0.0897
@<TRIPOS>BOND
     1    26    27    1
     2    27    25    1
     3    25    24    1
     4    24    23    1
     5    23    15    1
     6    15    16   ar
     7    16    17   ar
     8    17     1    1
     9     1     2   am
    10     2     3    2
    11     2     4   am
    12     4     5    1
    13     5     6    1
    14     6     7    1
    15     7     8    1
    16     8     9   ar
    17     9    10   ar
    18    10    30    1
    19    30    31    1
    20    31    35    1
    21    35    36    1
    22    36    37    1
    23    37    38    1
    24    37    39    1
    25    31    32   am
    26    32    33    1
    27    32    34    2
    28    10    11   ar
    29    11    28    1
    30    28    29    2
    31    11    12   ar
    32    12    13   ar
    33    17    18   ar
    34    18    19   ar
    35    19    20   ar
    36    20    21    1
    37    21    22    3
    38    20    15   ar
    39    13     4    1
    40    13     8   ar
    41     1    14    1
@<TRIPOS>MOLECULE
*****
 39 41 0 0 0
SMALL
GASTEIGER

@<TRIPOS>ATOM
      1 N         139.6710  144.3127  159.6842 N.am    1  UNL1       -0.2531
      2 C         140.5301  143.9688  160.8647 C.2     1  UNL1        0.3135
      3 O         142.0146  143.8336  160.6979 O.2     1  UNL1       -0.2518
      4 N         139.9047  143.7601  162.2120 N.am    1  UNL1       -0.2282
      5 C         138.4201  143.8953  162.3789 C.3     1  UNL1        0.1015
      6 C         137.7948  143.6866  163.7262 C.3     1  UNL1        0.0268
      7 C         138.6539  143.3427  164.9067 C.3     1  UNL1        0.0310
      8 C         140.1384  143.2075  164.7399 C.ar    1  UNL1        0.0096
      9 C         140.9976  142.8636  165.9204 C.ar    1  UNL1       -0.0025
     10 C         142.4821  142.7283  165.7536 C.ar    1  UNL1        0.0184
     11 CA        143.1076  142.9371  164.4062 C.ar    1  UNL1        0.1224
     12 N         142.2484  143.2810  163.2257 N.ar    1  UNL1       -0.2275
     13 C         140.7638  143.4162  163.3925 C.ar    1  UNL1        0.1345
     14 H         138.6966  144.4014  159.7937 H       1  UNL1        0.1578
     15 C         140.6815  146.0076  156.2409 C.ar    1  UNL1        0.1525
     16 C         140.0561  145.7989  157.5882 C.ar    1  UNL1        0.0721
     17 C         140.2963  144.5214  158.3369 C.ar    1  UNL1        0.1384
     18 N         141.1620  143.4527  157.7381 N.ar    1  UNL1       -0.2281
     19 C         141.7873  143.6614  156.3907 C.ar    1  UNL1        0.1136
     20 C         141.5471  144.9389  155.6421 C.ar    1  UNL1        0.1215
     21 C         142.1725  145.1476  154.2948 C.1     1  UNL1        0.1051
     22 N         142.7978  145.3563  152.9474 N.1     1  UNL1       -0.1907
     23 O         140.4412  147.2851  155.4924 O.3     1  UNL1       -0.4719
     24 C         139.0687  147.8895  155.4614 C.3     1  UNL1        0.2373
     25 C         138.9062  149.3750  155.3312 C.3     1  UNL1        0.1894
     26 C         138.1006  149.6695  157.7836 C.3     1  UNL1        0.1743
     27 O         138.1218  150.1365  156.3583 O.3     1  UNL1       -0.3471
     28 C         144.5921  142.8018  164.2394 C.2     1  UNL1        0.2529
     29 O         145.2038  141.4472  164.0369 O.2     1  UNL1       -0.2815
     30 C         143.3413  142.3844  166.9341 C.3     1  UNL1        0.1218
     31 N         142.9181  141.2990  167.8788 N.am    1  UNL1       -0.2739
     32 C         143.0374  141.5051  169.3597 C.2     1  UNL1        0.2264
     33 C         142.6142  140.4195  170.3046 C.3     1  UNL1        0.0948
     34 O         143.5799  142.7966  169.8959 O.2     1  UNL1       -0.2748
     35 C         142.3755  140.0074  167.3426 C.3     1  UNL1        0.1110
     36 C         143.0725  139.3138  166.2099 C.3     1  UNL1        0.0939
     37 N         142.3658  139.1190  164.9012 N.3     1  UNL1       -0.2688
     38 C         140.8995  139.4149  164.7893 C.3     1  UNL1        0.0897
     39 C         143.1254  138.6283  163.7044 C.3     1  UNL1        0.0897
@<TRIPOS>BOND
     1    26    27    1
     2    27    25    1
     3    25    24    1
     4    24    23    1
     5    23    15    1
     6    15    16   ar
     7    16    17   ar
     8    17     1    1
     9     1     2   am
    10     2     3    2
    11     2     4   am
    12     4     5    1
    13     5     6    1
    14     6     7    1
    15     7     8    1
    16     8     9   ar
    17     9    10   ar
    18    10    30    1
    19    30    31    1
    20    31    35    1
    21    35    36    1
    22    36    37    1
    23    37    38    1
    24    37    39    1
    25    31    32   am
    26    32    33    1
    27    32    34    2
    28    10    11   ar
    29    11    28    1
    30    28    29    2
    31    11    12   ar
    32    12    13   ar
    33    17    18   ar
    34    18    19   ar
    35    19    20   ar
    36    20    21    1
    37    21    22    3
    38    20    15   ar
    39    13     4    1
    40    13     8   ar
    41     1    14    1
@<TRIPOS>MOLECULE
*****
 39 41 0 0 0
SMALL
GASTEIGER

@<TRIPOS>ATOM
      1 N         138.0437  139.9577  159.6026 N.am    1  UNL1       -0.2531
      2 C         138.4802  140.6332  160.8688 C.2     1  UNL1        0.3135
      3 O         138.6246  142.1256  160.9113 O.2     1  UNL1       -0.2518
      4 N         138.7723  139.8162  162.0924 N.am    1  UNL1       -0.2282
      5 C         138.6279  138.3238  162.0499 C.3     1  UNL1        0.1015
      6 C         138.9200  137.5069  163.2735 C.3     1  UNL1        0.0268
      7 C         139.3565  138.1824  164.5397 C.3     1  UNL1        0.0310
      8 C         139.5009  139.6748  164.5822 C.ar    1  UNL1        0.0096
      9 C         139.9374  140.3503  165.8484 C.ar    1  UNL1       -0.0025
     10 C         140.0818  141.8427  165.8910 C.ar    1  UNL1        0.0184
     11 CA        139.7897  142.6597  164.6673 C.ar    1  UNL1        0.1224
     12 N         139.3532  141.9842  163.4011 N.ar    1  UNL1       -0.2275
     13 C         139.2088  140.4917  163.3586 C.ar    1  UNL1        0.1345
     14 H         137.9489  138.9782  159.5747 H       1  UNL1        0.1578
     15 C         138.3593  142.7326  156.7829 C.ar    1  UNL1        0.1525
     16 C         138.6514  141.9156  158.0065 C.ar    1  UNL1        0.0721
     17 C         137.7516  140.7747  158.3790 C.ar    1  UNL1        0.1384
     18 N         136.5598  140.4507  157.5278 N.ar    1  UNL1       -0.2281
     19 C         136.2677  141.2676  156.3041 C.ar    1  UNL1        0.1136
     20 C         137.1674  142.4086  155.9317 C.ar    1  UNL1        0.1215
     21 C         136.8754  143.2255  154.7081 C.1     1  UNL1        0.1051
     22 N         136.5832  144.0424  153.4844 N.1     1  UNL1       -0.1907
     23 O         139.2590  143.8735  156.4105 O.3     1  UNL1       -0.4719
     24 C         140.0988  144.5397  157.4597 C.3     1  UNL1        0.2373
     25 C         140.3108  146.0242  157.4196 C.3     1  UNL1        0.1894
     26 C         138.9007  147.3918  155.7193 C.3     1  UNL1        0.1743
     27 O         140.2024  146.7624  156.1183 O.3     1  UNL1       -0.3471
     28 C         139.9341  144.1521  164.7098 C.2     1  UNL1        0.2529
     29 O         139.0309  145.0169  163.8814 O.2     1  UNL1       -0.2815
     30 C         140.5183  142.5181  167.1571 C.3     1  UNL1        0.1218
     31 N         141.9028  142.2929  167.6885 N.am    1  UNL1       -0.2739
     32 C         142.1997  142.5417  169.1376 C.2     1  UNL1        0.2264
     33 C         143.5842  142.3165  169.6690 C.3     1  UNL1        0.0948
     34 O         141.1120  143.0156  170.0554 O.2     1  UNL1       -0.2748
     35 C         142.9905  141.8190  166.7707 C.3     1  UNL1        0.1110
     36 C         143.7609  142.8080  165.9471 C.3     1  UNL1        0.0939
     37 N         143.4893  142.9330  164.4772 N.3     1  UNL1       -0.2688
     38 C         143.1780  141.7106  163.6654 C.3     1  UNL1        0.0897
     39 C         143.5290  144.2803  163.8191 C.3     1  UNL1        0.0897
@<TRIPOS>BOND
     1    26    27    1
     2    27    25    1
     3    25    24    1
     4    24    23    1
     5    23    15    1
     6    15    16   ar
     7    16    17   ar
     8    17     1    1
     9     1     2   am
    10     2     3    2
    11     2     4   am
    12     4     5    1
    13     5     6    1
    14     6     7    1
    15     7     8    1
    16     8     9   ar
    17     9    10   ar
    18    10    30    1
    19    30    31    1
    20    31    35    1
    21    35    36    1
    22    36    37    1
    23    37    38    1
    24    37    39    1
    25    31    32   am
    26    32    33    1
    27    32    34    2
    28    10    11   ar
    29    11    28    1
    30    28    29    2
    31    11    12   ar
    32    12    13   ar
    33    17    18   ar
    34    18    19   ar
    35    19    20   ar
    36    20    21    1
    37    21    22    3
    38    20    15   ar
    39    13     4    1
    40    13     8   ar
    41     1    14    1
@<TRIPOS>MOLECULE
*****
 39 41 0 0 0
SMALL
GASTEIGER

@<TRIPOS>ATOM
      1 N         138.2836  142.9376  159.9564 N.am    1  UNL1       -0.2531
      2 C         139.3493  142.7066  160.9865 C.2     1  UNL1        0.3135
      3 O         140.6329  142.0339  160.5998 O.2     1  UNL1       -0.2518
      4 N         139.1311  143.1483  162.4034 N.am    1  UNL1       -0.2282
      5 C         137.8474  143.8209  162.7901 C.3     1  UNL1        0.1015
      6 C         137.6293  144.2626  164.2069 C.3     1  UNL1        0.0268
      7 C         138.6949  144.0315  165.2370 C.3     1  UNL1        0.0310
      8 C         139.9786  143.3588  164.8503 C.ar    1  UNL1        0.0096
      9 C         141.0442  143.1278  165.8804 C.ar    1  UNL1       -0.0025
     10 C         142.3279  142.4551  165.4936 C.ar    1  UNL1        0.0184
     11 CA        142.5461  142.0134  164.0768 C.ar    1  UNL1        0.1224
     12 N         141.4805  142.2445  163.0467 N.ar    1  UNL1       -0.2275
     13 C         140.1967  142.9172  163.4335 C.ar    1  UNL1        0.1345
     14 H         137.4411  143.3792  160.2102 H       1  UNL1        0.1578
     15 C         137.8614  140.9748  156.5331 C.ar    1  UNL1        0.1525
     16 C         137.6433  141.4164  157.9499 C.ar    1  UNL1        0.0721
     17 C         138.5017  142.4960  158.5396 C.ar    1  UNL1        0.1384
     18 N         139.5782  143.1339  157.7124 N.ar    1  UNL1       -0.2281
     19 C         139.7963  142.6922  156.2956 C.ar    1  UNL1        0.1136
     20 C         138.9379  141.6127  155.7059 C.ar    1  UNL1        0.1215
     21 C         139.1560  141.1711  154.2892 C.1     1  UNL1        0.1051
     22 N         139.3740  140.7295  152.8723 N.1     1  UNL1       -0.1907
     23 O         137.0029  139.8953  155.9435 O.3     1  UNL1       -0.4719
     24 C         135.7537  140.2552  155.1952 C.3     1  UNL1        0.2373
     25 C         134.4284  140.2415  155.8977 C.3     1  UNL1        0.1894
     26 C         133.2988  139.0910  157.9349 C.3     1  UNL1        0.1743
     27 O         133.9605  138.9970  156.5921 O.3     1  UNL1       -0.3471
     28 C         143.8298  141.3407  163.6901 C.2     1  UNL1        0.2529
     29 O         145.0504  142.1635  163.4014 O.2     1  UNL1       -0.2815
     30 C         143.3935  142.2240  166.5237 C.3     1  UNL1        0.1218
     31 N         143.0669  141.4865  167.7884 N.am    1  UNL1       -0.2739
     32 C         142.7217  140.0277  167.7380 C.2     1  UNL1        0.2264
     33 C         142.3950  139.2901  169.0026 C.3     1  UNL1        0.0948
     34 O         142.7032  139.3064  166.4229 O.2     1  UNL1       -0.2748
     35 C         143.0854  142.2079  169.1034 C.3     1  UNL1        0.1110
     36 C         141.8960  143.0145  169.5332 C.3     1  UNL1        0.0939
     37 N         141.0072  142.5128  170.6324 N.3     1  UNL1       -0.2688
     38 C         139.5977  143.0138  170.7448 C.3     1  UNL1        0.0897
     39 C         141.5276  141.5101  171.6192 C.3     1  UNL1        0.0897
@<TRIPOS>BOND
     1    26    27    1
     2    27    25    1
     3    25    24    1
     4    24    23    1
     5    23    15    1
     6    15    16   ar
     7    16    17   ar
     8    17     1    1
     9     1     2   am
    10     2     3    2
    11     2     4   am
    12     4     5    1
    13     5     6    1
    14     6     7    1
    15     7     8    1
    16     8     9   ar
    17     9    10   ar
    18    10    30    1
    19    30    31    1
    20    31    35    1
    21    35    36    1
    22    36    37    1
    23    37    38    1
    24    37    39    1
    25    31    32   am
    26    32    33    1
    27    32    34    2
    28    10    11   ar
    29    11    28    1
    30    28    29    2
    31    11    12   ar
    32    12    13   ar
    33    17    18   ar
    34    18    19   ar
    35    19    20   ar
    36    20    21    1
    37    21    22    3
    38    20    15   ar
    39    13     4    1
    40    13     8   ar
    41     1    14    1
@<TRIPOS>MOLECULE
*****
 39 41 0 0 0
SMALL
GASTEIGER

@<TRIPOS>ATOM
      1 N         138.8726  142.9781  159.3440 N.am    1  UNL1       -0.2531
      2 C         138.9544  142.3081  160.6835 C.2     1  UNL1        0.3135
      3 O         138.6606  140.8425  160.8082 O.2     1  UNL1       -0.2518
      4 N         139.3299  143.1038  161.8984 N.am    1  UNL1       -0.2282
      5 C         139.6237  144.5694  161.7738 C.3     1  UNL1        0.1015
      6 C         139.9992  145.3650  162.9886 C.3     1  UNL1        0.0268
      7 C         140.0810  144.6950  164.3282 C.3     1  UNL1        0.0310
      8 C         139.7872  143.2294  164.4529 C.ar    1  UNL1        0.0096
      9 C         139.8689  142.5593  165.7924 C.ar    1  UNL1       -0.0025
     10 C         139.5752  141.0937  165.9171 C.ar    1  UNL1        0.0184
     11 CA        139.1996  140.2980  164.7022 C.ar    1  UNL1        0.1224
     12 N         139.1179  140.9680  163.3626 N.ar    1  UNL1       -0.2275
     13 C         139.4117  142.4338  163.2380 C.ar    1  UNL1        0.1345
     14 H         139.0654  143.9401  159.2622 H       1  UNL1        0.1578
     15 C         139.0061  140.2693  156.4467 C.ar    1  UNL1        0.1525
     16 C         139.3816  141.0649  157.6616 C.ar    1  UNL1        0.0721
     17 C         138.4971  142.1825  158.1291 C.ar    1  UNL1        0.1384
     18 N         137.2371  142.5046  157.3817 N.ar    1  UNL1       -0.2281
     19 C         136.8616  141.7089  156.1667 C.ar    1  UNL1        0.1136
     20 C         137.7461  140.5913  155.6993 C.ar    1  UNL1        0.1215
     21 C         137.3706  139.7957  154.4844 C.1     1  UNL1        0.1051
     22 N         136.9951  139.0000  153.2695 N.1     1  UNL1       -0.1907
     23 O         139.8906  139.1516  155.9793 O.3     1  UNL1       -0.4719
     24 C         140.8168  138.4741  156.9452 C.3     1  UNL1        0.2373
     25 C         142.2766  138.8193  156.9522 C.3     1  UNL1        0.1894
     26 C         142.8776  136.2933  157.0433 C.3     1  UNL1        0.1743
     27 O         143.3040  137.7314  157.0564 O.3     1  UNL1       -0.3471
     28 C         138.9058  138.8324  164.8268 C.2     1  UNL1        0.2529
     29 O         138.8212  137.9772  163.5974 O.2     1  UNL1       -0.2815
     30 C         139.6569  140.4237  167.2566 C.3     1  UNL1        0.1218
     31 N         140.9909  140.0297  167.8180 N.am    1  UNL1       -0.2739
     32 C         141.1217  139.6912  169.2734 C.2     1  UNL1        0.2264
     33 C         142.4558  139.2972  169.8349 C.3     1  UNL1        0.0948
     34 O         139.9185  139.7465  170.1674 O.2     1  UNL1       -0.2748
     35 C         142.1941  139.9744  166.9240 C.3     1  UNL1        0.1110
     36 C         142.4843  138.7334  166.1330 C.3     1  UNL1        0.0939
     37 N         143.1243  138.8386  164.7805 N.3     1  UNL1       -0.2688
     38 C         142.3772  138.3885  163.5601 C.3     1  UNL1        0.0897
     39 C         144.5115  139.3939  164.6483 C.3     1  UNL1        0.0897
@<TRIPOS>BOND
     1    26    27    1
     2    27    25    1
     3    25    24    1
     4    24    23    1
     5    23    15    1
     6    15    16   ar
     7    16    17   ar
     8    17     1    1
     9     1     2   am
    10     2     3    2
    11     2     4   am
    12     4     5    1
    13     5     6    1
    14     6     7    1
    15     7     8    1
    16     8     9   ar
    17     9    10   ar
    18    10    30    1
    19    30    31    1
    20    31    35    1
    21    35    36    1
    22    36    37    1
    23    37    38    1
    24    37    39    1
    25    31    32   am
    26    32    33    1
    27    32    34    2
    28    10    11   ar
    29    11    28    1
    30    28    29    2
    31    11    12   ar
    32    12    13   ar
    33    17    18   ar
    34    18    19   ar
    35    19    20   ar
    36    20    21    1
    37    21    22    3
    38    20    15   ar
    39    13     4    1
    40    13     8   ar
    41     1    14    1
