@<TRIPOS>MOLECULE
*****
 36 39 0 0 0
SMALL
GASTEIGER

@<TRIPOS>ATOM
      1 C         137.8912  142.3044  163.5229 C.ar    1  UNL1        0.2311
      2 N         138.0174  143.7732  163.2462 N.ar    1  UNL1       -0.1892
      3 C         138.8466  144.6378  164.1488 C.ar    1  UNL1        0.2029
      4 N         139.5496  144.0336  165.3281 N.ar    1  UNL1       -0.2046
      5 C         139.4234  142.5648  165.6048 C.ar    1  UNL1        0.1715
      6 C         138.5941  141.7002  164.7022 C.ar    1  UNL1        0.1098
      7 C         138.6545  140.2946  165.2227 C.ar    1  UNL1        0.1283
      8 N         139.5211  140.2907  166.4471 N.ar    1  UNL1       -0.1620
      9 N         139.9963  141.6937  166.6832 N.ar    1  UNL1       -0.2120
     10 C         140.8878  142.1462  167.8014 C.ar    1  UNL1        0.0883
     11 C         140.3082  142.8866  168.9700 C.ar    1  UNL1        0.0192
     12 C         141.1998  143.3391  170.0882 C.ar    1  UNL1        0.0015
     13 C         142.6710  143.0512  170.0378 C.ar    1  UNL1        0.0000
     14 C         143.2506  142.3108  168.8691 C.ar    1  UNL1        0.0054
     15 C         142.3591  141.8583  167.7509 C.ar    1  UNL1        0.0891
     16 C         142.9388  141.1179  166.5823 C.3     1  UNL1        0.4200
     17 F         143.5185  140.3775  165.4137 F       1  UNL1       -0.1658
     18 F         143.1310  142.4158  165.8553 F       1  UNL1       -0.1658
     19 F         142.7466  139.8200  167.3093 F       1  UNL1       -0.1658
     20 O         137.0619  141.4397  162.6203 O.3     1  UNL1       -0.4543
     21 C         137.7168  140.6615  161.5177 C.3     1  UNL1        0.2455
     22 C         138.6527  141.3489  160.5681 C.2     1  UNL1        0.2675
     23 O         139.8541  140.6218  160.0411 O.2     1  UNL1       -0.2708
     24 N         138.3871  142.7635  160.1456 N.am    1  UNL1       -0.2664
     25 H         137.5985  143.2407  160.4915 H       1  UNL1        0.1564
     26 C         139.3229  143.4509  159.1960 C.ar    1  UNL1        0.1342
     27 C         140.4043  144.3458  159.7249 C.ar    1  UNL1        0.0342
     28 C         141.3401  145.0332  158.7754 C.ar    1  UNL1        0.0001
     29 C         141.1946  144.8257  157.2969 C.ar    1  UNL1       -0.0026
     30 C         142.1304  145.5131  156.3473 C.3     1  UNL1        0.0327
     31 C         140.1131  143.9308  156.7680 C.ar    1  UNL1        0.0960
     32 N         139.1773  143.2434  157.7176 N.ar    1  UNL1       -0.2293
     33 C         137.4358  139.1961  161.3647 C.3     1  UNL1        0.0852
     34 C         138.2039  138.1963  162.1774 C.3     1  UNL1        0.1465
     35 C         140.6682  137.5742  162.7160 C.3     1  UNL1        0.1741
     36 O         139.5582  137.7405  161.7210 O.3     1  UNL1       -0.3510
@<TRIPOS>BOND
     1    35    36    1
     2    36    34    1
     3    34    33    1
     4    21    33    1
     5    21    20    1
     6    20     1    1
     7     1     2   ar
     8     2     3   ar
     9     3     4   ar
    10     4     5   ar
    11     5     6   ar
    12     6     7   ar
    13     7     8   ar
    14     8     9   ar
    15     9    10    1
    16    10    11   ar
    17    11    12   ar
    18    12    13   ar
    19    13    14   ar
    20    14    15   ar
    21    15    16    1
    22    16    17    1
    23    16    18    1
    24    16    19    1
    25    21    22    1
    26    22    23    2
    27    22    24   am
    28    24    26    1
    29    26    27   ar
    30    27    28   ar
    31    28    29   ar
    32    29    30    1
    33    29    31   ar
    34    31    32   ar
    35     6     1   ar
    36    15    10   ar
    37    32    26   ar
    38     9     5   ar
    39    24    25    1
@<TRIPOS>MOLECULE
*****
 36 39 0 0 0
SMALL
GASTEIGER

@<TRIPOS>ATOM
      1 C         137.9858  142.4629  163.3244 C.ar    1  UNL1        0.2311
      2 N         138.1149  143.9396  163.0949 N.ar    1  UNL1       -0.1892
      3 C         138.9211  144.7781  164.0419 C.ar    1  UNL1        0.2029
      4 N         139.5983  144.1398  165.2184 N.ar    1  UNL1       -0.2046
      5 C         139.4692  142.6631  165.4479 C.ar    1  UNL1        0.1715
      6 C         138.6629  141.8247  164.5008 C.ar    1  UNL1        0.1098
      7 C         138.7147  140.4042  164.9801 C.ar    1  UNL1        0.1283
      8 N         139.5529  140.3648  166.2234 N.ar    1  UNL1       -0.1620
      9 N         140.0193  141.7609  166.5125 N.ar    1  UNL1       -0.2120
     10 C         140.8839  142.1810  167.6640 C.ar    1  UNL1        0.0883
     11 C         140.2737  142.8728  168.8468 C.ar    1  UNL1        0.0192
     12 C         141.1383  143.2929  169.9983 C.ar    1  UNL1        0.0015
     13 C         142.6131  143.0212  169.9670 C.ar    1  UNL1        0.0000
     14 C         143.2233  142.3294  168.7842 C.ar    1  UNL1        0.0054
     15 C         142.3587  141.9093  167.6327 C.ar    1  UNL1        0.0891
     16 C         142.9690  141.2175  166.4499 C.3     1  UNL1        0.4200
     17 F         143.5793  140.5257  165.2671 F       1  UNL1       -0.1658
     18 F         143.0864  142.5339  165.7404 F       1  UNL1       -0.1658
     19 F         142.8517  139.9011  167.1593 F       1  UNL1       -0.1658
     20 O         137.1795  141.6244  162.3773 O.3     1  UNL1       -0.4543
     21 C         137.8701  140.6892  161.4295 C.3     1  UNL1        0.2455
     22 C         139.0795  141.1487  160.6704 C.2     1  UNL1        0.2675
     23 O         138.9209  142.0456  159.4786 O.2     1  UNL1       -0.2708
     24 N         140.4475  140.7113  161.1031 N.am    1  UNL1       -0.2664
     25 H         140.5516  140.1226  161.8853 H       1  UNL1        0.1564
     26 C         141.6569  141.1707  160.3440 C.ar    1  UNL1        0.1342
     27 C         142.2733  142.5034  160.6507 C.ar    1  UNL1        0.0342
     28 C         143.4827  142.9629  159.8917 C.ar    1  UNL1        0.0001
     29 C         144.0757  142.0897  158.8259 C.ar    1  UNL1       -0.0026
     30 C         145.2851  142.5492  158.0668 C.3     1  UNL1        0.0327
     31 C         143.4594  140.7570  158.5192 C.ar    1  UNL1        0.0960
     32 N         142.2499  140.2976  159.2783 N.ar    1  UNL1       -0.2293
     33 C         137.3513  139.2945  161.2408 C.3     1  UNL1        0.0852
     34 C         137.9893  138.1515  161.9732 C.3     1  UNL1        0.1465
     35 C         140.3150  137.5475  162.9614 C.3     1  UNL1        0.1741
     36 O         139.4468  137.8553  161.7776 O.3     1  UNL1       -0.3510
@<TRIPOS>BOND
     1    35    36    1
     2    36    34    1
     3    34    33    1
     4    21    33    1
     5    21    20    1
     6    20     1    1
     7     1     2   ar
     8     2     3   ar
     9     3     4   ar
    10     4     5   ar
    11     5     6   ar
    12     6     7   ar
    13     7     8   ar
    14     8     9   ar
    15     9    10    1
    16    10    11   ar
    17    11    12   ar
    18    12    13   ar
    19    13    14   ar
    20    14    15   ar
    21    15    16    1
    22    16    17    1
    23    16    18    1
    24    16    19    1
    25    21    22    1
    26    22    23    2
    27    22    24   am
    28    24    26    1
    29    26    27   ar
    30    27    28   ar
    31    28    29   ar
    32    29    30    1
    33    29    31   ar
    34    31    32   ar
    35     6     1   ar
    36    15    10   ar
    37    32    26   ar
    38     9     5   ar
    39    24    25    1
@<TRIPOS>MOLECULE
*****
 36 39 0 0 0
SMALL
GASTEIGER

@<TRIPOS>ATOM
      1 C         140.0308  144.6109  162.4450 C.ar    1  UNL1        0.2311
      2 N         138.5442  144.8108  162.4388 N.ar    1  UNL1       -0.1892
      3 C         137.7133  144.2941  163.5757 C.ar    1  UNL1        0.2029
      4 N         138.3690  143.5776  164.7188 N.ar    1  UNL1       -0.2046
      5 C         139.8556  143.3777  164.7250 C.ar    1  UNL1        0.1715
      6 C         140.6865  143.8943  163.5880 C.ar    1  UNL1        0.1098
      7 C         142.1197  143.5508  163.8677 C.ar    1  UNL1        0.1283
      8 N         142.1744  142.8218  165.1775 N.ar    1  UNL1       -0.1620
      9 N         140.7752  142.7148  165.7073 N.ar    1  UNL1       -0.2120
     10 C         140.3671  142.0600  166.9936 C.ar    1  UNL1        0.0883
     11 C         140.5059  142.8018  168.2899 C.ar    1  UNL1        0.0192
     12 C         140.0978  142.1470  169.5763 C.ar    1  UNL1        0.0015
     13 C         139.5510  140.7502  169.5663 C.ar    1  UNL1        0.0000
     14 C         139.4123  140.0084  168.2700 C.ar    1  UNL1        0.0054
     15 C         139.8203  140.6632  166.9837 C.ar    1  UNL1        0.0891
     16 C         139.6816  139.9213  165.6875 C.3     1  UNL1        0.4200
     17 F         139.5428  139.1794  164.3912 F       1  UNL1       -0.1658
     18 F         138.2744  140.4225  165.5512 F       1  UNL1       -0.1658
     19 F         141.0888  139.4201  165.8237 F       1  UNL1       -0.1658
     20 O         140.8618  145.1275  161.3080 O.3     1  UNL1       -0.4543
     21 C         140.7915  144.4628  159.9651 C.3     1  UNL1        0.2455
     22 C         140.9204  145.2820  158.7151 C.2     1  UNL1        0.2675
     23 O         142.2287  145.9328  158.3765 O.2     1  UNL1       -0.2708
     24 N         139.7410  145.4502  157.8038 N.am    1  UNL1       -0.2664
     25 H         138.8823  145.0230  158.0260 H       1  UNL1        0.1564
     26 C         139.8698  146.2693  156.5538 C.ar    1  UNL1        0.1342
     27 C         139.0878  147.5409  156.4065 C.ar    1  UNL1        0.0342
     28 C         139.2167  148.3600  155.1565 C.ar    1  UNL1        0.0001
     29 C         140.1275  147.9076  154.0539 C.ar    1  UNL1       -0.0026
     30 C         140.2564  148.7267  152.8039 C.3     1  UNL1        0.0327
     31 C         140.9095  146.6360  154.2012 C.ar    1  UNL1        0.0960
     32 N         140.7806  145.8169  155.4513 N.ar    1  UNL1       -0.2293
     33 C         140.5924  142.9790  159.8723 C.3     1  UNL1        0.0852
     34 C         139.2166  142.4184  159.6656 C.3     1  UNL1        0.1465
     35 C         137.9336  141.6631  157.5363 C.3     1  UNL1        0.1741
     36 O         138.4470  142.7582  158.4236 O.3     1  UNL1       -0.3510
@<TRIPOS>BOND
     1    35    36    1
     2    36    34    1
     3    34    33    1
     4    21    33    1
     5    21    20    1
     6    20     1    1
     7     1     2   ar
     8     2     3   ar
     9     3     4   ar
    10     4     5   ar
    11     5     6   ar
    12     6     7   ar
    13     7     8   ar
    14     8     9   ar
    15     9    10    1
    16    10    11   ar
    17    11    12   ar
    18    12    13   ar
    19    13    14   ar
    20    14    15   ar
    21    15    16    1
    22    16    17    1
    23    16    18    1
    24    16    19    1
    25    21    22    1
    26    22    23    2
    27    22    24   am
    28    24    26    1
    29    26    27   ar
    30    27    28   ar
    31    28    29   ar
    32    29    30    1
    33    29    31   ar
    34    31    32   ar
    35     6     1   ar
    36    15    10   ar
    37    32    26   ar
    38     9     5   ar
    39    24    25    1
@<TRIPOS>MOLECULE
*****
 36 39 0 0 0
SMALL
GASTEIGER

@<TRIPOS>ATOM
      1 C         138.3129  141.5378  163.7325 C.ar    1  UNL1        0.2311
      2 N         138.7304  142.8647  163.1713 N.ar    1  UNL1       -0.1892
      3 C         139.6563  143.7508  163.9507 C.ar    1  UNL1        0.2029
      4 N         140.1647  143.3100  165.2913 N.ar    1  UNL1       -0.2046
      5 C         139.7473  141.9830  165.8525 C.ar    1  UNL1        0.1715
      6 C         138.8214  141.0970  165.0731 C.ar    1  UNL1        0.1098
      7 C         138.5851  139.8524  165.8765 C.ar    1  UNL1        0.1283
      8 N         139.3650  139.9694  167.1524 N.ar    1  UNL1       -0.1620
      9 N         140.0833  141.2862  167.1376 N.ar    1  UNL1       -0.2120
     10 C         140.9801  141.8135  168.2181 C.ar    1  UNL1        0.0883
     11 C         140.5600  143.0053  169.0263 C.ar    1  UNL1        0.0192
     12 C         141.4569  143.5326  170.1069 C.ar    1  UNL1        0.0015
     13 C         142.7738  142.8682  170.3793 C.ar    1  UNL1        0.0000
     14 C         143.1939  141.6765  169.5711 C.ar    1  UNL1        0.0054
     15 C         142.2971  141.1491  168.4905 C.ar    1  UNL1        0.0891
     16 C         142.7172  139.9574  167.6823 C.3     1  UNL1        0.4200
     17 F         143.1374  138.7656  166.8742 F       1  UNL1       -0.1658
     18 F         142.2790  139.0496  168.7931 F       1  UNL1       -0.1658
     19 F         143.1554  140.8651  166.5715 F       1  UNL1       -0.1658
     20 O         137.3870  140.6516  162.9531 O.3     1  UNL1       -0.4543
     21 C         137.9208  139.8108  161.8315 C.3     1  UNL1        0.2455
     22 C         138.3251  140.4545  160.5383 C.2     1  UNL1        0.2675
     23 O         138.8608  139.6140  159.4174 O.2     1  UNL1       -0.2708
     24 N         138.1938  141.9388  160.3662 N.am    1  UNL1       -0.2664
     25 H         137.8422  142.4905  161.1019 H       1  UNL1        0.1564
     26 C         138.5980  142.5825  159.0731 C.ar    1  UNL1        0.1342
     27 C         139.8366  143.4263  159.0104 C.ar    1  UNL1        0.0342
     28 C         140.2409  144.0701  157.7173 C.ar    1  UNL1        0.0001
     29 C         139.4065  143.8700  156.4868 C.ar    1  UNL1       -0.0026
     30 C         139.8108  144.5137  155.1937 C.3     1  UNL1        0.0327
     31 C         138.1680  143.0262  156.5495 C.ar    1  UNL1        0.0960
     32 N         137.7637  142.3824  157.8427 N.ar    1  UNL1       -0.2293
     33 C         138.0504  138.3263  162.0030 C.3     1  UNL1        0.0852
     34 C         139.1409  137.7633  162.8654 C.3     1  UNL1        0.1465
     35 C         141.3659  138.2924  161.6327 C.3     1  UNL1        0.1741
     36 O         140.4240  137.2975  162.2433 O.3     1  UNL1       -0.3510
@<TRIPOS>BOND
     1    35    36    1
     2    36    34    1
     3    34    33    1
     4    21    33    1
     5    21    20    1
     6    20     1    1
     7     1     2   ar
     8     2     3   ar
     9     3     4   ar
    10     4     5   ar
    11     5     6   ar
    12     6     7   ar
    13     7     8   ar
    14     8     9   ar
    15     9    10    1
    16    10    11   ar
    17    11    12   ar
    18    12    13   ar
    19    13    14   ar
    20    14    15   ar
    21    15    16    1
    22    16    17    1
    23    16    18    1
    24    16    19    1
    25    21    22    1
    26    22    23    2
    27    22    24   am
    28    24    26    1
    29    26    27   ar
    30    27    28   ar
    31    28    29   ar
    32    29    30    1
    33    29    31   ar
    34    31    32   ar
    35     6     1   ar
    36    15    10   ar
    37    32    26   ar
    38     9     5   ar
    39    24    25    1
@<TRIPOS>MOLECULE
*****
 36 39 0 0 0
SMALL
GASTEIGER

@<TRIPOS>ATOM
      1 C         141.0236  137.8350  163.0446 C.ar    1  UNL1        0.2311
      2 N         139.5877  137.6519  163.4379 N.ar    1  UNL1       -0.1892
      3 C         139.1094  138.1327  164.7758 C.ar    1  UNL1        0.2029
      4 N         140.0670  138.7965  165.7204 N.ar    1  UNL1       -0.2046
      5 C         141.5028  138.9796  165.3272 C.ar    1  UNL1        0.1715
      6 C         141.9812  138.4989  163.9893 C.ar    1  UNL1        0.1098
      7 C         143.4433  138.8154  163.8785 C.ar    1  UNL1        0.1283
      8 N         143.8685  139.4917  165.1480 N.ar    1  UNL1       -0.1620
      9 N         142.6693  139.5932  166.0433 N.ar    1  UNL1       -0.2120
     10 C         142.6414  140.2016  167.4141 C.ar    1  UNL1        0.0883
     11 C         142.6787  139.3198  168.6270 C.ar    1  UNL1        0.0192
     12 C         142.6508  139.9281  169.9978 C.ar    1  UNL1        0.0015
     13 C         142.5855  141.4183  170.1558 C.ar    1  UNL1        0.0000
     14 C         142.5482  142.3001  168.9430 C.ar    1  UNL1        0.0054
     15 C         142.5761  141.6918  167.5722 C.ar    1  UNL1        0.0891
     16 C         142.5388  142.5737  166.3594 C.3     1  UNL1        0.4200
     17 F         142.5015  143.4556  165.1466 F       1  UNL1       -0.1658
     18 F         141.0665  142.3223  166.2218 F       1  UNL1       -0.1658
     19 F         144.0112  142.8251  166.4969 F       1  UNL1       -0.1658
     20 O         141.5020  137.3543  161.7066 O.3     1  UNL1       -0.4543
     21 C         141.7095  138.3324  160.5885 C.3     1  UNL1        0.2455
     22 C         141.1339  139.7143  160.6844 C.2     1  UNL1        0.2675
     23 O         139.7160  139.9669  160.2653 O.2     1  UNL1       -0.2708
     24 N         141.9762  140.8435  161.1995 N.am    1  UNL1       -0.2664
     25 H         142.9068  140.6778  161.4746 H       1  UNL1        0.1564
     26 C         141.4006  142.2254  161.2954 C.ar    1  UNL1        0.1342
     27 C         140.7337  142.6738  162.5619 C.ar    1  UNL1        0.0342
     28 C         140.1581  144.0556  162.6578 C.ar    1  UNL1        0.0001
     29 C         140.2495  144.9891  161.4872 C.ar    1  UNL1       -0.0026
     30 C         139.6739  146.3709  161.5831 C.3     1  UNL1        0.0327
     31 C         140.9165  144.5407  160.2207 C.ar    1  UNL1        0.0960
     32 N         141.4920  143.1588  160.1248 N.ar    1  UNL1       -0.2293
     33 C         142.4926  137.9288  159.3746 C.3     1  UNL1        0.0852
     34 C         143.0121  138.9761  158.4347 C.3     1  UNL1        0.1465
     35 C         144.3281  141.1976  158.1469 C.3     1  UNL1        0.1741
     36 O         144.1014  139.9074  158.8776 O.3     1  UNL1       -0.3510
@<TRIPOS>BOND
     1    35    36    1
     2    36    34    1
     3    34    33    1
     4    21    33    1
     5    21    20    1
     6    20     1    1
     7     1     2   ar
     8     2     3   ar
     9     3     4   ar
    10     4     5   ar
    11     5     6   ar
    12     6     7   ar
    13     7     8   ar
    14     8     9   ar
    15     9    10    1
    16    10    11   ar
    17    11    12   ar
    18    12    13   ar
    19    13    14   ar
    20    14    15   ar
    21    15    16    1
    22    16    17    1
    23    16    18    1
    24    16    19    1
    25    21    22    1
    26    22    23    2
    27    22    24   am
    28    24    26    1
    29    26    27   ar
    30    27    28   ar
    31    28    29   ar
    32    29    30    1
    33    29    31   ar
    34    31    32   ar
    35     6     1   ar
    36    15    10   ar
    37    32    26   ar
    38     9     5   ar
    39    24    25    1
@<TRIPOS>MOLECULE
*****
 36 39 0 0 0
SMALL
GASTEIGER

@<TRIPOS>ATOM
      1 C         138.0992  141.8511  164.1303 C.ar    1  UNL1        0.2311
      2 N         137.9446  143.3428  164.1008 N.ar    1  UNL1       -0.1892
      3 C         138.7033  144.1948  165.0746 C.ar    1  UNL1        0.2029
      4 N         139.6165  143.5551  166.0780 N.ar    1  UNL1       -0.2046
      5 C         139.7711  142.0634  166.1075 C.ar    1  UNL1        0.1715
      6 C         139.0124  141.2114  165.1337 C.ar    1  UNL1        0.1098
      7 C         139.3643  139.7777  165.3998 C.ar    1  UNL1        0.1283
      8 N         140.3404  139.7437  166.5382 N.ar    1  UNL1       -0.1620
      9 N         140.5918  141.1563  166.9756 N.ar    1  UNL1       -0.2120
     10 C         141.5039  141.5864  168.0861 C.ar    1  UNL1        0.0883
     11 C         142.8745  142.1082  167.7714 C.ar    1  UNL1        0.0192
     12 C         143.7866  142.5383  168.8819 C.ar    1  UNL1        0.0015
     13 C         143.3280  142.4465  170.3071 C.ar    1  UNL1        0.0000
     14 C         141.9574  141.9247  170.6218 C.ar    1  UNL1        0.0054
     15 C         141.0453  141.4946  169.5113 C.ar    1  UNL1        0.0891
     16 C         139.6747  140.9728  169.8261 C.3     1  UNL1        0.4200
     17 F         138.3041  140.4509  170.1408 F       1  UNL1       -0.1658
     18 F         140.1708  139.5674  169.6567 F       1  UNL1       -0.1658
     19 F         139.1786  142.3781  169.9955 F       1  UNL1       -0.1658
     20 O         137.3405  140.9990  163.1564 O.3     1  UNL1       -0.4543
     21 C         138.0295  140.4558  161.9398 C.3     1  UNL1        0.2455
     22 C         138.9313  141.3403  161.1308 C.2     1  UNL1        0.2675
     23 O         140.4105  141.3312  161.3790 O.2     1  UNL1       -0.2708
     24 N         138.3537  142.2341  160.0736 N.am    1  UNL1       -0.2664
     25 H         137.3828  142.2401  159.9107 H       1  UNL1        0.1564
     26 C         139.2553  143.1187  159.2646 C.ar    1  UNL1        0.1342
     27 C         139.6997  142.6879  157.8982 C.ar    1  UNL1        0.0342
     28 C         140.6014  143.5725  157.0893 C.ar    1  UNL1        0.0001
     29 C         141.0588  144.8879  157.6467 C.ar    1  UNL1       -0.0026
     30 C         141.9604  145.7724  156.8377 C.3     1  UNL1        0.0327
     31 C         140.6144  145.3186  159.0131 C.ar    1  UNL1        0.0960
     32 N         139.7127  144.4340  159.8221 N.ar    1  UNL1       -0.2293
     33 C         137.8168  139.0280  161.5321 C.3     1  UNL1        0.0852
     34 C         138.9963  138.1397  161.2681 C.3     1  UNL1        0.1465
     35 C         141.1117  137.5477  162.6554 C.3     1  UNL1        0.1741
     36 O         139.6418  137.3944  162.3985 O.3     1  UNL1       -0.3510
@<TRIPOS>BOND
     1    35    36    1
     2    36    34    1
     3    34    33    1
     4    21    33    1
     5    21    20    1
     6    20     1    1
     7     1     2   ar
     8     2     3   ar
     9     3     4   ar
    10     4     5   ar
    11     5     6   ar
    12     6     7   ar
    13     7     8   ar
    14     8     9   ar
    15     9    10    1
    16    10    11   ar
    17    11    12   ar
    18    12    13   ar
    19    13    14   ar
    20    14    15   ar
    21    15    16    1
    22    16    17    1
    23    16    18    1
    24    16    19    1
    25    21    22    1
    26    22    23    2
    27    22    24   am
    28    24    26    1
    29    26    27   ar
    30    27    28   ar
    31    28    29   ar
    32    29    30    1
    33    29    31   ar
    34    31    32   ar
    35     6     1   ar
    36    15    10   ar
    37    32    26   ar
    38     9     5   ar
    39    24    25    1
@<TRIPOS>MOLECULE
*****
 36 39 0 0 0
SMALL
GASTEIGER

@<TRIPOS>ATOM
      1 C         143.7064  139.6941  162.8046 C.ar    1  UNL1        0.2311
      2 N         143.0024  138.4040  162.5049 N.ar    1  UNL1       -0.1892
      3 C         142.1005  137.7856  163.5316 C.ar    1  UNL1        0.2029
      4 N         141.9027  138.4574  164.8581 N.ar    1  UNL1       -0.2046
      5 C         142.6068  139.7475  165.1579 C.ar    1  UNL1        0.1715
      6 C         143.5086  140.3658  164.1311 C.ar    1  UNL1        0.1098
      7 C         144.0654  141.6342  164.7068 C.ar    1  UNL1        0.1283
      8 N         143.5075  141.7998  166.0893 N.ar    1  UNL1       -0.1620
      9 N         142.6061  140.6337  166.3681 N.ar    1  UNL1       -0.2120
     10 C         141.8387  140.3956  167.6347 C.ar    1  UNL1        0.0883
     11 C         142.4985  139.7092  168.7937 C.ar    1  UNL1        0.0192
     12 C         141.7311  139.4712  170.0604 C.ar    1  UNL1        0.0015
     13 C         140.3037  139.9195  170.1680 C.ar    1  UNL1        0.0000
     14 C         139.6438  140.6059  169.0090 C.ar    1  UNL1        0.0054
     15 C         140.4113  140.8439  167.7424 C.ar    1  UNL1        0.0891
     16 C         139.7513  141.5303  166.5834 C.3     1  UNL1        0.4200
     17 F         139.0913  142.2167  165.4244 F       1  UNL1       -0.1658
     18 F         139.2376  140.2090  166.0932 F       1  UNL1       -0.1658
     19 F         140.2649  142.8517  167.0734 F       1  UNL1       -0.1658
     20 O         144.6083  140.3125  161.7778 O.3     1  UNL1       -0.4543
     21 C         144.0268  140.9075  160.5297 C.3     1  UNL1        0.2455
     22 C         143.6257  140.0173  159.3909 C.2     1  UNL1        0.2675
     23 O         144.3844  140.0658  158.0979 O.2     1  UNL1       -0.2708
     24 N         142.4658  139.0788  159.5452 N.am    1  UNL1       -0.2664
     25 H         141.9678  139.0470  160.3938 H       1  UNL1        0.1564
     26 C         142.0646  138.1887  158.4064 C.ar    1  UNL1        0.1342
     27 C         140.7191  138.3529  157.7642 C.ar    1  UNL1        0.0342
     28 C         140.3179  137.4628  156.6255 C.ar    1  UNL1        0.0001
     29 C         141.2624  136.4085  156.1289 C.ar    1  UNL1       -0.0026
     30 C         140.8612  135.5184  154.9902 C.3     1  UNL1        0.0327
     31 C         142.6079  136.2443  156.7712 C.ar    1  UNL1        0.0960
     32 N         143.0091  137.1345  157.9100 N.ar    1  UNL1       -0.2293
     33 C         143.8464  142.3925  160.4204 C.3     1  UNL1        0.0852
     34 C         143.1238  143.1418  161.5004 C.3     1  UNL1        0.1465
     35 C         143.2058  144.9684  163.3463 C.3     1  UNL1        0.1741
     36 O         143.6974  144.4185  162.0401 O.3     1  UNL1       -0.3510
@<TRIPOS>BOND
     1    35    36    1
     2    36    34    1
     3    34    33    1
     4    21    33    1
     5    21    20    1
     6    20     1    1
     7     1     2   ar
     8     2     3   ar
     9     3     4   ar
    10     4     5   ar
    11     5     6   ar
    12     6     7   ar
    13     7     8   ar
    14     8     9   ar
    15     9    10    1
    16    10    11   ar
    17    11    12   ar
    18    12    13   ar
    19    13    14   ar
    20    14    15   ar
    21    15    16    1
    22    16    17    1
    23    16    18    1
    24    16    19    1
    25    21    22    1
    26    22    23    2
    27    22    24   am
    28    24    26    1
    29    26    27   ar
    30    27    28   ar
    31    28    29   ar
    32    29    30    1
    33    29    31   ar
    34    31    32   ar
    35     6     1   ar
    36    15    10   ar
    37    32    26   ar
    38     9     5   ar
    39    24    25    1
@<TRIPOS>MOLECULE
*****
 36 39 0 0 0
SMALL
GASTEIGER

@<TRIPOS>ATOM
      1 C         144.4114  141.2727  163.6284 C.ar    1  UNL1        0.2311
      2 N         144.4960  142.7533  163.8531 N.ar    1  UNL1       -0.1892
      3 C         143.8776  143.3628  165.0763 C.ar    1  UNL1        0.2029
      4 N         143.1745  142.4916  166.0746 N.ar    1  UNL1       -0.2046
      5 C         143.0898  141.0110  165.8499 C.ar    1  UNL1        0.1715
      6 C         143.7083  140.4015  164.6267 C.ar    1  UNL1        0.1098
      7 C         143.4669  138.9218  164.6735 C.ar    1  UNL1        0.1283
      8 N         142.6992  138.6167  165.9255 N.ar    1  UNL1       -0.1620
      9 N         142.4662  139.9079  166.6526 N.ar    1  UNL1       -0.2120
     10 C         141.7375  140.0680  167.9538 C.ar    1  UNL1        0.0883
     11 C         142.4808  139.9403  169.2504 C.ar    1  UNL1        0.0192
     12 C         141.7521  140.1004  170.5517 C.ar    1  UNL1        0.0015
     13 C         140.2800  140.3882  170.5564 C.ar    1  UNL1        0.0000
     14 C         139.5366  140.5159  169.2599 C.ar    1  UNL1        0.0054
     15 C         140.2654  140.3558  167.9586 C.ar    1  UNL1        0.0891
     16 C         139.5219  140.4836  166.6621 C.3     1  UNL1        0.4200
     17 F         138.7785  140.6113  165.3655 F       1  UNL1       -0.1658
     18 F         139.1598  139.0294  166.7263 F       1  UNL1       -0.1658
     19 F         139.8840  141.9378  166.5977 F       1  UNL1       -0.1658
     20 O         145.0298  140.6632  162.4052 O.3     1  UNL1       -0.4543
     21 C         144.1603  140.2244  161.2645 C.3     1  UNL1        0.2455
     22 C         143.2485  141.2092  160.5944 C.2     1  UNL1        0.2675
     23 O         141.7740  140.9421  160.5292 O.2     1  UNL1       -0.2708
     24 N         143.8114  142.4612  159.9897 N.am    1  UNL1       -0.2664
     25 H         144.7792  142.6365  160.0325 H       1  UNL1        0.1564
     26 C         142.8997  143.4460  159.3197 C.ar    1  UNL1        0.1342
     27 C         142.8287  143.5040  157.8225 C.ar    1  UNL1        0.0342
     28 C         141.9171  144.4888  157.1525 C.ar    1  UNL1        0.0001
     29 C         141.0764  145.4157  157.9797 C.ar    1  UNL1       -0.0026
     30 C         140.1647  146.4005  157.3096 C.3     1  UNL1        0.0327
     31 C         141.1474  145.3577  159.4768 C.ar    1  UNL1        0.0960
     32 N         142.0591  144.3728  160.1469 N.ar    1  UNL1       -0.2293
     33 C         144.2024  138.8008  160.7938 C.3     1  UNL1        0.0852
     34 C         143.4280  137.7454  161.5262 C.3     1  UNL1        0.1465
     35 C         140.9097  137.8729  162.1525 C.3     1  UNL1        0.1741
     36 O         141.9894  137.4960  161.1819 O.3     1  UNL1       -0.3510
@<TRIPOS>BOND
     1    35    36    1
     2    36    34    1
     3    34    33    1
     4    21    33    1
     5    21    20    1
     6    20     1    1
     7     1     2   ar
     8     2     3   ar
     9     3     4   ar
    10     4     5   ar
    11     5     6   ar
    12     6     7   ar
    13     7     8   ar
    14     8     9   ar
    15     9    10    1
    16    10    11   ar
    17    11    12   ar
    18    12    13   ar
    19    13    14   ar
    20    14    15   ar
    21    15    16    1
    22    16    17    1
    23    16    18    1
    24    16    19    1
    25    21    22    1
    26    22    23    2
    27    22    24   am
    28    24    26    1
    29    26    27   ar
    30    27    28   ar
    31    28    29   ar
    32    29    30    1
    33    29    31   ar
    34    31    32   ar
    35     6     1   ar
    36    15    10   ar
    37    32    26   ar
    38     9     5   ar
    39    24    25    1
@<TRIPOS>MOLECULE
*****
 36 39 0 0 0
SMALL
GASTEIGER

@<TRIPOS>ATOM
      1 C         142.3220  143.8644  163.3269 C.ar    1  UNL1        0.2311
      2 N         140.9539  144.2236  162.8276 N.ar    1  UNL1       -0.1892
      3 C         139.7536  143.9919  163.6968 C.ar    1  UNL1        0.2029
      4 N         139.9214  143.4010  165.0653 N.ar    1  UNL1       -0.2046
      5 C         141.2895  143.0418  165.5645 C.ar    1  UNL1        0.1715
      6 C         142.4897  143.2735  164.6953 C.ar    1  UNL1        0.1098
      7 C         143.7041  142.8234  165.4523 C.ar    1  UNL1        0.1283
      8 N         143.2542  142.3136  166.7893 N.ar    1  UNL1       -0.1620
      9 N         141.7619  142.4486  166.8587 N.ar    1  UNL1       -0.2120
     10 C         140.8944  142.0587  168.0186 C.ar    1  UNL1        0.0883
     11 C         140.6924  143.0129  169.1582 C.ar    1  UNL1        0.0192
     12 C         139.8249  142.6230  170.3181 C.ar    1  UNL1        0.0015
     13 C         139.1592  141.2790  170.3384 C.ar    1  UNL1        0.0000
     14 C         139.3611  140.3248  169.1987 C.ar    1  UNL1        0.0054
     15 C         140.2287  140.7147  168.0389 C.ar    1  UNL1        0.0891
     16 C         140.4306  139.7605  166.8993 C.3     1  UNL1        0.4200
     17 F         140.6325  138.8062  165.7597 F       1  UNL1       -0.1658
     18 F         139.1288  140.2019  166.2989 F       1  UNL1       -0.1658
     19 F         141.7324  139.3189  167.4996 F       1  UNL1       -0.1658
     20 O         143.5223  144.0961  162.4576 O.3     1  UNL1       -0.4543
     21 C         143.8014  143.1786  161.3042 C.3     1  UNL1        0.2455
     22 C         143.1313  143.4103  159.9824 C.2     1  UNL1        0.2675
     23 O         143.4755  142.5464  158.8054 O.2     1  UNL1       -0.2708
     24 N         142.1170  144.5059  159.8375 N.am    1  UNL1       -0.2664
     25 H         141.8912  145.0728  160.6100 H       1  UNL1        0.1564
     26 C         141.4469  144.7376  158.5157 C.ar    1  UNL1        0.1342
     27 C         142.0428  145.6997  157.5312 C.ar    1  UNL1        0.0342
     28 C         141.3727  145.9314  156.2094 C.ar    1  UNL1        0.0001
     29 C         140.1066  145.2011  155.8721 C.ar    1  UNL1       -0.0026
     30 C         139.4365  145.4328  154.5503 C.3     1  UNL1        0.0327
     31 C         139.5107  144.2390  156.8566 C.ar    1  UNL1        0.0960
     32 N         140.1809  144.0073  158.1785 N.ar    1  UNL1       -0.2293
     33 C         144.7506  142.0294  161.4727 C.3     1  UNL1        0.0852
     34 C         144.2195  140.6452  161.7008 C.3     1  UNL1        0.1465
     35 C         141.8806  140.1527  162.7192 C.3     1  UNL1        0.1741
     36 O         143.3558  140.3604  162.8938 O.3     1  UNL1       -0.3510
@<TRIPOS>BOND
     1    35    36    1
     2    36    34    1
     3    34    33    1
     4    21    33    1
     5    21    20    1
     6    20     1    1
     7     1     2   ar
     8     2     3   ar
     9     3     4   ar
    10     4     5   ar
    11     5     6   ar
    12     6     7   ar
    13     7     8   ar
    14     8     9   ar
    15     9    10    1
    16    10    11   ar
    17    11    12   ar
    18    12    13   ar
    19    13    14   ar
    20    14    15   ar
    21    15    16    1
    22    16    17    1
    23    16    18    1
    24    16    19    1
    25    21    22    1
    26    22    23    2
    27    22    24   am
    28    24    26    1
    29    26    27   ar
    30    27    28   ar
    31    28    29   ar
    32    29    30    1
    33    29    31   ar
    34    31    32   ar
    35     6     1   ar
    36    15    10   ar
    37    32    26   ar
    38     9     5   ar
    39    24    25    1
