@<TRIPOS>MOLECULE
*****
 31 35 0 0 0
SMALL
GASTEIGER

@<TRIPOS>ATOM
      1 O         137.7098  140.4441  162.7543 O.2     1  UNL1       -0.2749
      2 C         138.6341  141.3130  163.5547 C.2     1  UNL1        0.2250
      3 N         138.9677  140.9483  164.9710 N.am    1  UNL1       -0.2750
      4 C         138.3770  139.7147  165.5868 C.3     1  UNL1        0.1000
      5 C         138.7106  139.3500  167.0030 C.3     1  UNL1        0.0670
      6 C         139.6349  140.2190  167.8034 C.ar    1  UNL1        0.0583
      7 N         139.9685  139.8543  169.2197 N.ar    1  UNL1       -0.2484
      8 C         140.8928  140.7232  170.0201 C.ar    1  UNL1        0.1023
      9 C         141.4834  141.9569  169.4042 C.ar    1  UNL1        0.0902
     10 C         141.1498  142.3216  167.9880 C.ar    1  UNL1        0.0040
     11 C         140.2255  141.4526  167.1876 C.ar    1  UNL1        0.0113
     12 C         139.8919  141.8173  165.7714 C.3     1  UNL1        0.1213
     13 C         139.2247  142.5467  162.9389 C.3     1  UNL1        0.0704
     14 C         137.8965  142.9145  163.5308 C.3     1  UNL1        0.0087
     15 C         137.6662  144.3755  163.2809 C.3     1  UNL1        0.0005
     16 C         138.8522  144.9106  162.5344 C.3     1  UNL1        0.0005
     17 C         139.8154  143.7804  162.3231 C.3     1  UNL1        0.0095
     18 C         141.1436  143.4125  161.7311 C.3     1  UNL1        0.0162
     19 C         141.3739  141.9515  161.9811 C.3     1  UNL1        0.0544
     20 C         140.1879  141.4164  162.7275 C.3     1  UNL1        0.0243
     21 N         142.5786  141.1638  161.5587 N.3     1  UNL1       -0.2996
     22 H         142.9493  141.6177  160.7239 H       1  UNL1        0.1232
     23 C         143.7300  140.9896  162.5042 C.3     1  UNL1        0.0539
     24 C         144.8195  141.9882  162.7603 C.3     1  UNL1        0.0157
     25 C         145.7569  141.4019  163.7740 C.3     1  UNL1        0.0014
     26 C         145.2466  140.0408  164.1444 C.3     1  UNL1        0.0014
     27 C         143.9940  139.7860  163.3596 C.3     1  UNL1        0.0157
     28 C         142.4077  142.8259  170.2046 C.3     1  UNL1        0.4200
     29 F         143.3320  143.6948  171.0050 F       1  UNL1       -0.1658
     30 F         141.4321  143.9604  170.0994 F       1  UNL1       -0.1658
     31 F         143.3833  141.6913  170.3098 F       1  UNL1       -0.1658
@<TRIPOS>BOND
     1     1     2    2
     2     2     3   am
     3     3     4    1
     4     4     5    1
     5     5     6    1
     6     6     7   ar
     7     7     8   ar
     8     8     9   ar
     9     9    28    1
    10    28    29    1
    11    28    30    1
    12    28    31    1
    13     9    10   ar
    14    10    11   ar
    15    11    12    1
    16    13     2    1
    17    13    14    1
    18    14    15    1
    19    15    16    1
    20    17    16    1
    21    17    18    1
    22    18    19    1
    23    19    21    1
    24    21    23    1
    25    23    24    1
    26    24    25    1
    27    25    26    1
    28    26    27    1
    29    19    20    1
    30    12     3    1
    31    17    13    1
    32    27    23    1
    33    11     6   ar
    34    20    13    1
    35    21    22    1
@<TRIPOS>MOLECULE
*****
 31 35 0 0 0
SMALL
GASTEIGER

@<TRIPOS>ATOM
      1 O         143.1653  138.8371  167.3003 O.2     1  UNL1       -0.2749
      2 C         142.1409  139.8075  166.7913 C.2     1  UNL1        0.2250
      3 N         142.5035  140.7830  165.7111 N.am    1  UNL1       -0.2750
      4 C         143.8905  140.7883  165.1399 C.3     1  UNL1        0.1000
      5 C         144.2530  141.7638  164.0597 C.3     1  UNL1        0.0670
      6 C         143.2286  142.7341  163.5507 C.ar    1  UNL1        0.0583
      7 N         143.5913  143.7097  162.4705 N.ar    1  UNL1       -0.2484
      8 C         142.5669  144.6800  161.9615 C.ar    1  UNL1        0.1023
      9 C         141.1798  144.6748  162.5327 C.ar    1  UNL1        0.0902
     10 C         140.8173  143.6992  163.6129 C.ar    1  UNL1        0.0040
     11 C         141.8417  142.7289  164.1219 C.ar    1  UNL1        0.0113
     12 C         141.4791  141.7534  165.2021 C.3     1  UNL1        0.1213
     13 C         140.7539  139.8022  167.3625 C.3     1  UNL1        0.0704
     14 C         141.6685  140.4308  168.3717 C.3     1  UNL1        0.0087
     15 C         140.8467  140.8141  169.5666 C.3     1  UNL1        0.0005
     16 C         139.4243  140.4224  169.2959 C.3     1  UNL1        0.0005
     17 C         139.3669  139.7970  167.9337 C.3     1  UNL1        0.0095
     18 C         138.4524  139.1684  166.9245 C.3     1  UNL1        0.0162
     19 C         139.2742  138.7852  165.7296 C.3     1  UNL1        0.0544
     20 C         140.6966  139.1769  166.0003 C.3     1  UNL1        0.0243
     21 N         138.7632  138.1259  164.4828 N.3     1  UNL1       -0.2996
     22 H         137.9555  137.5659  164.7557 H       1  UNL1        0.1232
     23 C         138.3351  138.9623  163.3136 C.3     1  UNL1        0.0539
     24 C         138.1534  140.4513  163.3142 C.3     1  UNL1        0.0157
     25 C         137.7195  140.8659  161.9395 C.3     1  UNL1        0.0014
     26 C         137.6331  139.6331  161.0893 C.3     1  UNL1        0.0014
     27 C         138.0135  138.4566  161.9386 C.3     1  UNL1        0.0157
     28 C         140.1554  145.6451  162.0238 C.3     1  UNL1        0.4200
     29 F         139.1310  146.6154  161.5148 F       1  UNL1       -0.1658
     30 F         139.3904  145.5106  163.3070 F       1  UNL1       -0.1658
     31 F         140.9204  145.7796  160.7405 F       1  UNL1       -0.1658
@<TRIPOS>BOND
     1     1     2    2
     2     2     3   am
     3     3     4    1
     4     4     5    1
     5     5     6    1
     6     6     7   ar
     7     7     8   ar
     8     8     9   ar
     9     9    28    1
    10    28    29    1
    11    28    30    1
    12    28    31    1
    13     9    10   ar
    14    10    11   ar
    15    11    12    1
    16    13     2    1
    17    13    14    1
    18    14    15    1
    19    15    16    1
    20    17    16    1
    21    17    18    1
    22    18    19    1
    23    19    21    1
    24    21    23    1
    25    23    24    1
    26    24    25    1
    27    25    26    1
    28    26    27    1
    29    19    20    1
    30    12     3    1
    31    17    13    1
    32    27    23    1
    33    11     6   ar
    34    20    13    1
    35    21    22    1
@<TRIPOS>MOLECULE
*****
 31 35 0 0 0
SMALL
GASTEIGER

@<TRIPOS>ATOM
      1 O         143.4056  138.7752  168.0285 O.2     1  UNL1       -0.2749
      2 C         142.5777  139.9679  167.6515 C.2     1  UNL1        0.2250
      3 N         142.7493  140.6044  166.3040 N.am    1  UNL1       -0.2750
      4 C         143.7488  140.0482  165.3337 C.3     1  UNL1        0.1000
      5 C         143.9203  140.6846  163.9863 C.3     1  UNL1        0.0670
      6 C         143.0924  141.8773  163.6093 C.ar    1  UNL1        0.0583
      7 N         143.2639  142.5138  162.2618 N.ar    1  UNL1       -0.2484
      8 C         142.4360  143.7064  161.8848 C.ar    1  UNL1        0.1023
      9 C         141.4365  144.2626  162.8553 C.ar    1  UNL1        0.0902
     10 C         141.2649  143.6261  164.2027 C.ar    1  UNL1        0.0040
     11 C         142.0929  142.4335  164.5797 C.ar    1  UNL1        0.0113
     12 C         141.9213  141.7970  165.9270 C.3     1  UNL1        0.1213
     13 C         141.5782  140.5241  168.6218 C.3     1  UNL1        0.0704
     14 C         142.9414  140.9851  169.0452 C.3     1  UNL1        0.0087
     15 C         142.7844  141.8262  170.2772 C.3     1  UNL1        0.0005
     16 C         141.3242  141.8850  170.6153 C.3     1  UNL1        0.0005
     17 C         140.5787  141.0803  169.5923 C.3     1  UNL1        0.0095
     18 C         139.2155  140.6193  169.1689 C.3     1  UNL1        0.0162
     19 C         139.3725  139.7782  167.9369 C.3     1  UNL1        0.0544
     20 C         140.8327  139.7193  167.5988 C.3     1  UNL1        0.0243
     21 N         138.2639  139.1127  167.1765 N.3     1  UNL1       -0.2996
     22 H         137.4365  139.6984  167.2894 H       1  UNL1        0.1232
     23 C         138.4132  138.8529  165.7067 C.3     1  UNL1        0.0539
     24 C         138.2126  139.8556  164.6093 C.3     1  UNL1        0.0157
     25 C         138.4647  139.1672  163.3006 C.3     1  UNL1        0.0014
     26 C         138.8211  137.7390  163.5894 C.3     1  UNL1        0.0014
     27 C         138.7892  137.5448  165.0764 C.3     1  UNL1        0.0157
     28 C         140.6085  145.4552  162.4783 C.3     1  UNL1        0.4200
     29 F         139.7806  146.6478  162.1013 F       1  UNL1       -0.1658
     30 F         141.2703  145.4893  161.1326 F       1  UNL1       -0.1658
     31 F         139.9467  145.4212  163.8240 F       1  UNL1       -0.1658
@<TRIPOS>BOND
     1     1     2    2
     2     2     3   am
     3     3     4    1
     4     4     5    1
     5     5     6    1
     6     6     7   ar
     7     7     8   ar
     8     8     9   ar
     9     9    28    1
    10    28    29    1
    11    28    30    1
    12    28    31    1
    13     9    10   ar
    14    10    11   ar
    15    11    12    1
    16    13     2    1
    17    13    14    1
    18    14    15    1
    19    15    16    1
    20    17    16    1
    21    17    18    1
    22    18    19    1
    23    19    21    1
    24    21    23    1
    25    23    24    1
    26    24    25    1
    27    25    26    1
    28    26    27    1
    29    19    20    1
    30    12     3    1
    31    17    13    1
    32    27    23    1
    33    11     6   ar
    34    20    13    1
    35    21    22    1
@<TRIPOS>MOLECULE
*****
 31 35 0 0 0
SMALL
GASTEIGER

@<TRIPOS>ATOM
      1 O         139.6936  137.7215  162.0587 O.2     1  UNL1       -0.2749
      2 C         140.4195  138.7690  162.8498 C.2     1  UNL1        0.2250
      3 N         140.0324  139.0353  164.2744 N.am    1  UNL1       -0.2750
      4 C         138.9195  138.2542  164.9078 C.3     1  UNL1        0.1000
      5 C         138.5325  138.5205  166.3323 C.3     1  UNL1        0.0670
      6 C         139.2584  139.5680  167.1234 C.ar    1  UNL1        0.0583
      7 N         138.8713  139.8343  168.5479 N.ar    1  UNL1       -0.2484
      8 C         139.5972  140.8818  169.3390 C.ar    1  UNL1        0.1023
      9 C         140.7102  141.6630  168.7056 C.ar    1  UNL1        0.0902
     10 C         141.0972  141.3966  167.2811 C.ar    1  UNL1        0.0040
     11 C         140.3713  140.3492  166.4900 C.ar    1  UNL1        0.0113
     12 C         140.7583  140.0828  165.0655 C.3     1  UNL1        0.1213
     13 C         141.5323  139.5502  162.2164 C.3     1  UNL1        0.0704
     14 C         142.0197  138.1498  162.4434 C.3     1  UNL1        0.0087
     15 C         143.4339  138.0655  161.9503 C.3     1  UNL1        0.0005
     16 C         143.8205  139.4137  161.4186 C.3     1  UNL1        0.0005
     17 C         142.6453  140.3313  161.5830 C.3     1  UNL1        0.0095
     18 C         142.1580  141.7316  161.3560 C.3     1  UNL1        0.0162
     19 C         140.7438  141.8159  161.8490 C.3     1  UNL1        0.0544
     20 C         140.3572  140.4677  162.3808 C.3     1  UNL1        0.0243
     21 N         139.8697  143.0346  161.8161 N.3     1  UNL1       -0.2996
     22 H         139.0801  142.8142  161.2093 H       1  UNL1        0.1232
     23 C         139.2974  143.5817  163.0901 C.3     1  UNL1        0.0539
     24 C         140.0764  143.9669  164.3127 C.3     1  UNL1        0.0157
     25 C         139.1060  144.4630  165.3434 C.3     1  UNL1        0.0014
     26 C         137.7273  144.3843  164.7577 C.3     1  UNL1        0.0014
     27 C         137.8456  143.8396  163.3651 C.3     1  UNL1        0.0157
     28 C         141.4361  142.7105  169.4967 C.3     1  UNL1        0.4200
     29 F         142.1619  143.7580  170.2878 F       1  UNL1       -0.1658
     30 F         142.6227  141.8003  169.6130 F       1  UNL1       -0.1658
     31 F         140.2494  143.6206  169.3804 F       1  UNL1       -0.1658
@<TRIPOS>BOND
     1     1     2    2
     2     2     3   am
     3     3     4    1
     4     4     5    1
     5     5     6    1
     6     6     7   ar
     7     7     8   ar
     8     8     9   ar
     9     9    28    1
    10    28    29    1
    11    28    30    1
    12    28    31    1
    13     9    10   ar
    14    10    11   ar
    15    11    12    1
    16    13     2    1
    17    13    14    1
    18    14    15    1
    19    15    16    1
    20    17    16    1
    21    17    18    1
    22    18    19    1
    23    19    21    1
    24    21    23    1
    25    23    24    1
    26    24    25    1
    27    25    26    1
    28    26    27    1
    29    19    20    1
    30    12     3    1
    31    17    13    1
    32    27    23    1
    33    11     6   ar
    34    20    13    1
    35    21    22    1
@<TRIPOS>MOLECULE
*****
 31 35 0 0 0
SMALL
GASTEIGER

@<TRIPOS>ATOM
      1 O         142.4216  137.8273  162.3138 O.2     1  UNL1       -0.2749
      2 C         141.5575  138.7289  163.1447 C.2     1  UNL1        0.2250
      3 N         141.8928  138.9689  164.5870 N.am    1  UNL1       -0.2750
      4 C         143.0922  138.3074  165.1983 C.3     1  UNL1        0.1000
      5 C         143.4274  138.5474  166.6405 C.3     1  UNL1        0.0670
      6 C         142.5633  139.4491  167.4713 C.ar    1  UNL1        0.0583
      7 N         142.8986  139.6891  168.9136 N.ar    1  UNL1       -0.2484
      8 C         142.0345  140.5907  169.7445 C.ar    1  UNL1        0.1023
      9 C         140.8350  141.2523  169.1331 C.ar    1  UNL1        0.0902
     10 C         140.4998  141.0122  167.6909 C.ar    1  UNL1        0.0040
     11 C         141.3639  140.1106  166.8600 C.ar    1  UNL1        0.0113
     12 C         141.0286  139.8706  165.4178 C.3     1  UNL1        0.1213
     13 C         140.3581  139.3905  162.5334 C.3     1  UNL1        0.0704
     14 C         139.9173  138.0820  163.1195 C.3     1  UNL1        0.0087
     15 C         138.4454  137.9348  162.8704 C.3     1  UNL1        0.0005
     16 C         137.9765  139.1524  162.1304 C.3     1  UNL1        0.0005
     17 C         139.1586  140.0520  161.9221 C.3     1  UNL1        0.0095
     18 C         139.5994  141.3605  161.3360 C.3     1  UNL1        0.0162
     19 C         141.0712  141.5077  161.5851 C.3     1  UNL1        0.0544
     20 C         141.5401  140.2901  162.3252 C.3     1  UNL1        0.0243
     21 N         141.9244  142.6687  161.1675 N.3     1  UNL1       -0.2996
     22 H         141.4111  143.1641  160.4385 H       1  UNL1        0.1232
     23 C         142.3402  143.6958  162.1785 C.3     1  UNL1        0.0539
     24 C         141.4187  144.5357  163.0124 C.3     1  UNL1        0.0157
     25 C         142.2595  145.4224  163.8823 C.3     1  UNL1        0.0014
     26 C         143.7008  145.1304  163.5860 C.3     1  UNL1        0.0014
     27 C         143.7506  144.0633  162.5330 C.3     1  UNL1        0.0157
     28 C         139.9709  142.1539  169.9640 C.3     1  UNL1        0.4200
     29 F         139.1068  143.0555  170.7948 F       1  UNL1       -0.1658
     30 F         138.9232  141.0829  170.0365 F       1  UNL1       -0.1658
     31 F         141.0186  143.2250  169.8914 F       1  UNL1       -0.1658
@<TRIPOS>BOND
     1     1     2    2
     2     2     3   am
     3     3     4    1
     4     4     5    1
     5     5     6    1
     6     6     7   ar
     7     7     8   ar
     8     8     9   ar
     9     9    28    1
    10    28    29    1
    11    28    30    1
    12    28    31    1
    13     9    10   ar
    14    10    11   ar
    15    11    12    1
    16    13     2    1
    17    13    14    1
    18    14    15    1
    19    15    16    1
    20    17    16    1
    21    17    18    1
    22    18    19    1
    23    19    21    1
    24    21    23    1
    25    23    24    1
    26    24    25    1
    27    25    26    1
    28    26    27    1
    29    19    20    1
    30    12     3    1
    31    17    13    1
    32    27    23    1
    33    11     6   ar
    34    20    13    1
    35    21    22    1
@<TRIPOS>MOLECULE
*****
 31 35 0 0 0
SMALL
GASTEIGER

@<TRIPOS>ATOM
      1 O         144.1932  139.3167  162.2210 O.2     1  UNL1       -0.2749
      2 C         143.3095  140.2048  163.0458 C.2     1  UNL1        0.2250
      3 N         143.1349  139.9368  164.5113 N.am    1  UNL1       -0.2750
      4 C         143.8439  138.7807  165.1520 C.3     1  UNL1        0.1000
      5 C         143.6693  138.5127  166.6175 C.3     1  UNL1        0.0670
      6 C         142.7856  139.4009  167.4423 C.ar    1  UNL1        0.0583
      7 N         142.6110  139.1329  168.9078 N.ar    1  UNL1       -0.2484
      8 C         141.7273  140.0211  169.7326 C.ar    1  UNL1        0.1023
      9 C         141.0182  141.1773  169.0918 C.ar    1  UNL1        0.0902
     10 C         141.1929  141.4452  167.6263 C.ar    1  UNL1        0.0040
     11 C         142.0765  140.5570  166.8016 C.ar    1  UNL1        0.0113
     12 C         142.2512  140.8250  165.3361 C.3     1  UNL1        0.1213
     13 C         142.6005  141.3610  162.4051 C.3     1  UNL1        0.0704
     14 C         144.0732  141.6435  162.3701 C.3     1  UNL1        0.0087
     15 C         144.2744  142.9742  161.7078 C.3     1  UNL1        0.0005
     16 C         142.9260  143.5142  161.3334 C.3     1  UNL1        0.0005
     17 C         141.8914  142.5172  161.7643 C.3     1  UNL1        0.0095
     18 C         140.4187  142.2348  161.7993 C.3     1  UNL1        0.0162
     19 C         140.2175  140.9040  162.4616 C.3     1  UNL1        0.0544
     20 C         141.5659  140.3640  162.8360 C.3     1  UNL1        0.0243
     21 N         138.8993  140.2313  162.7064 N.3     1  UNL1       -0.2996
     22 H         138.7547  139.5778  161.9367 H       1  UNL1        0.1232
     23 C         138.6734  139.4632  163.9748 C.3     1  UNL1        0.0539
     24 C         138.8671  137.9870  164.1580 C.3     1  UNL1        0.0157
     25 C         138.5276  137.6478  165.5792 C.3     1  UNL1        0.0014
     26 C         138.1242  138.9144  166.2743 C.3     1  UNL1        0.0014
     27 C         138.2143  140.0363  165.2828 C.3     1  UNL1        0.0157
     28 C         140.1346  142.0654  169.9166 C.3     1  UNL1        0.4200
     29 F         139.2509  142.9536  170.7413 F       1  UNL1       -0.1658
     30 F         141.1345  143.1765  169.7914 F       1  UNL1       -0.1658
     31 F         139.1347  140.9544  170.0418 F       1  UNL1       -0.1658
@<TRIPOS>BOND
     1     1     2    2
     2     2     3   am
     3     3     4    1
     4     4     5    1
     5     5     6    1
     6     6     7   ar
     7     7     8   ar
     8     8     9   ar
     9     9    28    1
    10    28    29    1
    11    28    30    1
    12    28    31    1
    13     9    10   ar
    14    10    11   ar
    15    11    12    1
    16    13     2    1
    17    13    14    1
    18    14    15    1
    19    15    16    1
    20    17    16    1
    21    17    18    1
    22    18    19    1
    23    19    21    1
    24    21    23    1
    25    23    24    1
    26    24    25    1
    27    25    26    1
    28    26    27    1
    29    19    20    1
    30    12     3    1
    31    17    13    1
    32    27    23    1
    33    11     6   ar
    34    20    13    1
    35    21    22    1
@<TRIPOS>MOLECULE
*****
 31 35 0 0 0
SMALL
GASTEIGER

@<TRIPOS>ATOM
      1 O         142.5597  140.4326  161.1024 O.2     1  UNL1       -0.2749
      2 C         142.4625  140.7870  162.5567 C.2     1  UNL1        0.2250
      3 N         141.3712  140.1982  163.4009 N.am    1  UNL1       -0.2750
      4 C         140.3772  139.2549  162.7907 C.3     1  UNL1        0.1000
      5 C         139.2861  138.6662  163.6349 C.3     1  UNL1        0.0670
      6 C         139.1889  139.0206  165.0891 C.ar    1  UNL1        0.0583
      7 N         138.0976  138.4317  165.9333 N.ar    1  UNL1       -0.2484
      8 C         138.0004  138.7862  167.3876 C.ar    1  UNL1        0.1023
      9 C         138.9945  139.7294  167.9977 C.ar    1  UNL1        0.0902
     10 C         140.0857  140.3182  167.1536 C.ar    1  UNL1        0.0040
     11 C         140.1829  139.9638  165.6993 C.ar    1  UNL1        0.0113
     12 C         141.2740  140.5526  164.8551 C.3     1  UNL1        0.1213
     13 C         143.4564  141.7302  163.1668 C.3     1  UNL1        0.0704
     14 C         144.0936  140.3748  163.0847 C.3     1  UNL1        0.0087
     15 C         145.4814  140.4803  163.6441 C.3     1  UNL1        0.0005
     16 C         145.7020  141.9009  164.0719 C.3     1  UNL1        0.0005
     17 C         144.4505  142.6735  163.7770 C.3     1  UNL1        0.0095
     18 C         143.8133  144.0289  163.8591 C.3     1  UNL1        0.0162
     19 C         142.4255  143.9234  163.2997 C.3     1  UNL1        0.0544
     20 C         142.2050  142.5028  162.8719 C.3     1  UNL1        0.0243
     21 N         141.4326  145.0422  163.1878 N.3     1  UNL1       -0.2996
     22 H         141.4795  145.3826  162.2275 H       1  UNL1        0.1232
     23 C         139.9844  144.7926  163.4885 C.3     1  UNL1        0.0539
     24 C         138.8829  144.6676  162.4779 C.3     1  UNL1        0.0157
     25 C         137.6012  144.4219  163.2173 C.3     1  UNL1        0.0014
     26 C         137.9105  144.3951  164.6849 C.3     1  UNL1        0.0014
     27 C         139.3834  144.6242  164.8524 C.3     1  UNL1        0.0157
     28 C         138.8973  140.0839  169.4520 C.3     1  UNL1        0.4200
     29 F         138.8001  140.4383  170.9063 F       1  UNL1       -0.1658
     30 F         140.2033  140.8161  169.3608 F       1  UNL1       -0.1658
     31 F         137.5913  139.3517  169.5432 F       1  UNL1       -0.1658
@<TRIPOS>BOND
     1     1     2    2
     2     2     3   am
     3     3     4    1
     4     4     5    1
     5     5     6    1
     6     6     7   ar
     7     7     8   ar
     8     8     9   ar
     9     9    28    1
    10    28    29    1
    11    28    30    1
    12    28    31    1
    13     9    10   ar
    14    10    11   ar
    15    11    12    1
    16    13     2    1
    17    13    14    1
    18    14    15    1
    19    15    16    1
    20    17    16    1
    21    17    18    1
    22    18    19    1
    23    19    21    1
    24    21    23    1
    25    23    24    1
    26    24    25    1
    27    25    26    1
    28    26    27    1
    29    19    20    1
    30    12     3    1
    31    17    13    1
    32    27    23    1
    33    11     6   ar
    34    20    13    1
    35    21    22    1
@<TRIPOS>MOLECULE
*****
 31 35 0 0 0
SMALL
GASTEIGER

@<TRIPOS>ATOM
      1 O         140.8840  140.8186  167.4076 O.2     1  UNL1       -0.2749
      2 C         140.5645  140.6092  165.9571 C.2     1  UNL1        0.2250
      3 N         140.5235  141.7809  165.0213 N.am    1  UNL1       -0.2750
      4 C         140.8021  143.1619  165.5361 C.3     1  UNL1        0.1000
      5 C         140.7611  144.3335  164.6004 C.3     1  UNL1        0.0670
      6 C         140.4416  144.1241  163.1499 C.ar    1  UNL1        0.0583
      7 N         140.4006  145.2958  162.2141 N.ar    1  UNL1       -0.2484
      8 C         140.0811  145.0863  160.7636 C.ar    1  UNL1        0.1023
      9 C         139.8025  143.7052  160.2488 C.ar    1  UNL1        0.0902
     10 C         139.8434  142.5336  161.1845 C.ar    1  UNL1        0.0040
     11 C         140.1630  142.7430  162.6351 C.ar    1  UNL1        0.0113
     12 C         140.2040  141.5714  163.5708 C.3     1  UNL1        0.1213
     13 C         140.2859  139.2281  165.4423 C.3     1  UNL1        0.0704
     14 C         139.1158  139.6563  166.2774 C.3     1  UNL1        0.0087
     15 C         138.1140  138.5399  166.2787 C.3     1  UNL1        0.0005
     16 C         138.6649  137.4217  165.4444 C.3     1  UNL1        0.0005
     17 C         140.0072  137.8470  164.9275 C.3     1  UNL1        0.0095
     18 C         141.1774  137.4188  164.0923 C.3     1  UNL1        0.0162
     19 C         142.1792  138.5353  164.0910 C.3     1  UNL1        0.0544
     20 C         141.6282  139.6535  164.9253 C.3     1  UNL1        0.0243
     21 N         143.5001  138.5338  163.3801 N.3     1  UNL1       -0.2996
     22 H         143.3283  138.1765  162.4403 H       1  UNL1        0.1232
     23 C         144.2690  139.8121  163.2235 C.3     1  UNL1        0.0539
     24 C         145.2838  140.3542  164.1860 C.3     1  UNL1        0.0157
     25 C         145.8001  141.6499  163.6344 C.3     1  UNL1        0.0014
     26 C         145.1044  141.9087  162.3308 C.3     1  UNL1        0.0014
     27 C         144.1582  140.7728  162.0770 C.3     1  UNL1        0.0157
     28 C         139.4829  143.4957  158.7983 C.3     1  UNL1        0.4200
     29 F         139.1634  143.2863  157.3478 F       1  UNL1       -0.1658
     30 F         140.7448  144.2114  158.4170 F       1  UNL1       -0.1658
     31 F         138.2210  142.7801  159.1796 F       1  UNL1       -0.1658
@<TRIPOS>BOND
     1     1     2    2
     2     2     3   am
     3     3     4    1
     4     4     5    1
     5     5     6    1
     6     6     7   ar
     7     7     8   ar
     8     8     9   ar
     9     9    28    1
    10    28    29    1
    11    28    30    1
    12    28    31    1
    13     9    10   ar
    14    10    11   ar
    15    11    12    1
    16    13     2    1
    17    13    14    1
    18    14    15    1
    19    15    16    1
    20    17    16    1
    21    17    18    1
    22    18    19    1
    23    19    21    1
    24    21    23    1
    25    23    24    1
    26    24    25    1
    27    25    26    1
    28    26    27    1
    29    19    20    1
    30    12     3    1
    31    17    13    1
    32    27    23    1
    33    11     6   ar
    34    20    13    1
    35    21    22    1
@<TRIPOS>MOLECULE
*****
 31 35 0 0 0
SMALL
GASTEIGER

@<TRIPOS>ATOM
      1 O         144.5975  144.8158  162.3987 O.2     1  UNL1       -0.2749
      2 C         143.5553  143.7425  162.2901 C.2     1  UNL1        0.2250
      3 N         143.1518  142.9630  163.5065 N.am    1  UNL1       -0.2750
      4 C         143.7906  143.2568  164.8315 C.3     1  UNL1        0.1000
      5 C         143.3872  142.4773  166.0479 C.3     1  UNL1        0.0670
      6 C         142.3449  141.4040  165.9393 C.ar    1  UNL1        0.0583
      7 N         141.9415  140.6245  167.1557 N.ar    1  UNL1       -0.2484
      8 C         140.8992  139.5512  167.0471 C.ar    1  UNL1        0.1023
      9 C         140.2605  139.2574  165.7220 C.ar    1  UNL1        0.0902
     10 C         140.6639  140.0369  164.5057 C.ar    1  UNL1        0.0040
     11 C         141.7061  141.1102  164.6143 C.ar    1  UNL1        0.0113
     12 C         142.1096  141.8897  163.3979 C.3     1  UNL1        0.1213
     13 C         142.9165  143.4487  160.9651 C.3     1  UNL1        0.0704
     14 C         144.3185  142.9165  160.9319 C.3     1  UNL1        0.0087
     15 C         144.5462  142.2938  159.5864 C.3     1  UNL1        0.0005
     16 C         143.2850  142.4411  158.7880 C.3     1  UNL1        0.0005
     17 C         142.2777  143.1548  159.6401 C.3     1  UNL1        0.0095
     18 C         140.8757  143.6870  159.6732 C.3     1  UNL1        0.0162
     19 C         140.6480  144.3097  161.0188 C.3     1  UNL1        0.0544
     20 C         141.9092  144.1624  161.8172 C.3     1  UNL1        0.0243
     21 N         139.3813  144.9648  161.4841 N.3     1  UNL1       -0.2996
     22 H         138.6420  144.6589  160.8515 H       1  UNL1        0.1232
     23 C         138.8831  144.7279  162.8790 C.3     1  UNL1        0.0539
     24 C         137.5863  144.0733  163.2528 C.3     1  UNL1        0.0157
     25 C         137.4959  144.0449  164.7498 C.3     1  UNL1        0.0014
     26 C         138.7370  144.6821  165.3012 C.3     1  UNL1        0.0014
     27 C         139.5942  145.1042  164.1449 C.3     1  UNL1        0.0157
     28 C         139.2182  138.1841  165.6134 C.3     1  UNL1        0.4200
     29 F         138.1760  137.1108  165.5048 F       1  UNL1       -0.1658
     30 F         140.2444  137.2443  165.0535 F       1  UNL1       -0.1658
     31 F         138.1920  139.1240  166.1734 F       1  UNL1       -0.1658
@<TRIPOS>BOND
     1     1     2    2
     2     2     3   am
     3     3     4    1
     4     4     5    1
     5     5     6    1
     6     6     7   ar
     7     7     8   ar
     8     8     9   ar
     9     9    28    1
    10    28    29    1
    11    28    30    1
    12    28    31    1
    13     9    10   ar
    14    10    11   ar
    15    11    12    1
    16    13     2    1
    17    13    14    1
    18    14    15    1
    19    15    16    1
    20    17    16    1
    21    17    18    1
    22    18    19    1
    23    19    21    1
    24    21    23    1
    25    23    24    1
    26    24    25    1
    27    25    26    1
    28    26    27    1
    29    19    20    1
    30    12     3    1
    31    17    13    1
    32    27    23    1
    33    11     6   ar
    34    20    13    1
    35    21    22    1
