@<TRIPOS>MOLECULE
*****
 31 34 0 0 0
SMALL
GASTEIGER

@<TRIPOS>ATOM
      1 C         140.7048  141.1350  164.0136 C.2     1  UNL1        0.0020
      2 C         141.2119  140.9203  165.4090 C.2     1  UNL1        0.0130
      3 C         140.7251  141.7942  166.5266 C.3     1  UNL1        0.1548
      4 C         141.7190  140.7056  166.8042 C.3     1  UNL1        0.0658
      5 C         142.2260  140.4910  168.1995 C.3     1  UNL1        0.0973
      6 N         141.7392  141.3649  169.3171 N.am    1  UNL1       -0.2793
      7 C         142.2463  141.1502  170.7124 C.2     1  UNL1        0.2261
      8 C         143.2402  140.0616  170.9900 C.3     1  UNL1        0.0948
      9 O         141.7595  142.0242  171.8301 O.2     1  UNL1       -0.2749
     10 C         140.7454  142.4535  169.0396 C.3     1  UNL1        0.0973
     11 C         140.2383  142.6682  167.6443 C.3     1  UNL1        0.0658
     12 O         139.7312  142.8829  166.2490 O.3     1  UNL1       -0.4784
     13 C         139.2242  143.0976  164.8537 C.ar    1  UNL1        0.1386
     14 C         138.2302  144.1862  164.5761 C.ar    1  UNL1        0.0369
     15 C         137.7232  144.4009  163.1809 C.ar    1  UNL1        0.0031
     16 C         138.2100  143.5269  162.0632 C.ar    1  UNL1        0.0002
     17 C         139.2039  142.4383  162.3408 C.ar    1  UNL1        0.0030
     18 C         139.7110  142.2236  163.7361 C.ar    1  UNL1        0.0338
     19 C         142.1653  138.5131  160.6606 C.ar    1  UNL1        0.0536
     20 C         142.8559  139.8123  160.9520 C.ar    1  UNL1        0.0045
     21 C         142.3691  140.6863  162.0697 C.ar    1  UNL1        0.0001
     22 C         141.1916  140.2610  162.8960 C.ar    1  UNL1       -0.0001
     23 C         140.5009  138.9617  162.6046 C.ar    1  UNL1        0.0001
     24 C         140.9878  138.0878  161.4869 C.ar    1  UNL1        0.0045
     25 N         142.1421  137.8513  158.1483 N.am    1  UNL1       -0.2761
     26 C         142.6521  137.6391  159.5429 C.2     1  UNL1        0.2490
     27 O         143.6489  136.5529  159.8199 O.2     1  UNL1       -0.2699
     28 C         141.6441  136.2495  156.1643 C.3     1  UNL1        0.0233
     29 C         142.6289  136.9774  157.0307 C.3     1  UNL1        0.0938
     30 C         141.1453  138.9375  157.8714 C.3     1  UNL1        0.0938
     31 C         139.6804  138.6776  158.0624 C.3     1  UNL1        0.0233
@<TRIPOS>BOND
     1    28    29    1
     2    29    25    1
     3    25    30    1
     4    30    31    1
     5    25    26   am
     6    26    27    2
     7    26    19    1
     8    19    20   ar
     9    20    21   ar
    10    21    22   ar
    11    22     1    1
    12     1     2    2
    13     2     3    1
    14     3     4    1
    15     4     5    1
    16     5     6    1
    17     6     7   am
    18     7     8    1
    19     7     9    2
    20     6    10    1
    21    10    11    1
    22     3    12    1
    23    12    13    1
    24    13    14   ar
    25    14    15   ar
    26    15    16   ar
    27    16    17   ar
    28    17    18   ar
    29    22    23   ar
    30    23    24   ar
    31    24    19   ar
    32    18     1    1
    33    11     3    1
    34    18    13   ar
@<TRIPOS>MOLECULE
*****
 31 34 0 0 0
SMALL
GASTEIGER

@<TRIPOS>ATOM
      1 C         142.1770  142.4586  161.8831 C.2     1  UNL1        0.0020
      2 C         142.8656  141.9747  160.6414 C.2     1  UNL1        0.0130
      3 C         142.7010  142.7237  159.3522 C.3     1  UNL1        0.1548
      4 C         143.5541  141.4909  159.3997 C.3     1  UNL1        0.0658
      5 C         144.2426  141.0071  158.1580 C.3     1  UNL1        0.0973
      6 N         144.0780  141.7561  156.8688 N.am    1  UNL1       -0.2793
      7 C         144.7665  141.2722  155.6271 C.2     1  UNL1        0.2261
      8 C         145.6196  140.0394  155.6746 C.3     1  UNL1        0.0948
      9 O         144.6019  142.0212  154.3380 O.2     1  UNL1       -0.2749
     10 C         143.2248  142.9889  156.8214 C.3     1  UNL1        0.0973
     11 C         142.5363  143.4727  158.0631 C.3     1  UNL1        0.0658
     12 O         141.8478  143.9566  159.3048 O.3     1  UNL1       -0.4784
     13 C         141.1593  144.4404  160.5465 C.ar    1  UNL1        0.1386
     14 C         140.3061  145.6733  160.4991 C.ar    1  UNL1        0.0369
     15 C         139.6176  146.1571  161.7408 C.ar    1  UNL1        0.0031
     16 C         139.7822  145.4081  163.0299 C.ar    1  UNL1        0.0002
     17 C         140.6354  144.1753  163.0774 C.ar    1  UNL1        0.0030
     18 C         141.3239  143.6914  161.8357 C.ar    1  UNL1        0.0338
     19 C         142.6709  140.2116  165.7505 C.ar    1  UNL1        0.0536
     20 C         143.5685  141.3718  165.4374 C.ar    1  UNL1        0.0045
     21 C         143.4038  142.1208  164.1482 C.ar    1  UNL1        0.0001
     22 C         142.3416  141.7096  163.1722 C.ar    1  UNL1       -0.0001
     23 C         141.4440  140.5493  163.4854 C.ar    1  UNL1        0.0001
     24 C         141.6086  139.8003  164.7745 C.ar    1  UNL1        0.0045
     25 N         142.0775  139.8942  168.2599 N.am    1  UNL1       -0.2761
     26 C         142.8355  139.4626  167.0397 C.2     1  UNL1        0.2490
     27 O         143.7582  138.2819  167.1085 O.2     1  UNL1       -0.2699
     28 C         143.0831  139.7217  170.6493 C.3     1  UNL1        0.0233
     29 C         142.2421  139.1452  169.5491 C.3     1  UNL1        0.0938
     30 C         141.1547  141.0748  168.1911 C.3     1  UNL1        0.0938
     31 C         141.6485  142.4364  168.5813 C.3     1  UNL1        0.0233
@<TRIPOS>BOND
     1    28    29    1
     2    29    25    1
     3    25    30    1
     4    30    31    1
     5    25    26   am
     6    26    27    2
     7    26    19    1
     8    19    20   ar
     9    20    21   ar
    10    21    22   ar
    11    22     1    1
    12     1     2    2
    13     2     3    1
    14     3     4    1
    15     4     5    1
    16     5     6    1
    17     6     7   am
    18     7     8    1
    19     7     9    2
    20     6    10    1
    21    10    11    1
    22     3    12    1
    23    12    13    1
    24    13    14   ar
    25    14    15   ar
    26    15    16   ar
    27    16    17   ar
    28    17    18   ar
    29    22    23   ar
    30    23    24   ar
    31    24    19   ar
    32    18     1    1
    33    11     3    1
    34    18    13   ar
@<TRIPOS>MOLECULE
*****
 31 34 0 0 0
SMALL
GASTEIGER

@<TRIPOS>ATOM
      1 C         141.8677  138.2312  157.5278 C.2     1  UNL1        0.0020
      2 C         142.5060  136.8965  157.2802 C.2     1  UNL1        0.0130
      3 C         141.9067  135.9525  156.2803 C.3     1  UNL1        0.1548
      4 C         143.1442  135.5619  157.0326 C.3     1  UNL1        0.0658
      5 C         143.7824  134.2272  156.7850 C.3     1  UNL1        0.0973
      6 N         143.1832  133.2833  155.7851 N.am    1  UNL1       -0.2793
      7 C         143.8214  131.9486  155.5375 C.2     1  UNL1        0.2261
      8 C         145.0589  131.5579  156.2897 C.3     1  UNL1        0.0948
      9 O         143.2222  131.0046  154.5376 O.2     1  UNL1       -0.2749
     10 C         141.9457  133.6739  155.0328 C.3     1  UNL1        0.0973
     11 C         141.3074  135.0086  155.2804 C.3     1  UNL1        0.0658
     12 O         140.6691  136.3433  155.5281 O.3     1  UNL1       -0.4784
     13 C         140.0309  137.6779  155.7757 C.ar    1  UNL1        0.1386
     14 C         138.7933  138.0686  155.0234 C.ar    1  UNL1        0.0369
     15 C         138.1551  139.4033  155.2710 C.ar    1  UNL1        0.0031
     16 C         138.7544  140.3472  156.2709 C.ar    1  UNL1        0.0002
     17 C         139.9919  139.9566  157.0232 C.ar    1  UNL1        0.0030
     18 C         140.6302  138.6219  156.7756 C.ar    1  UNL1        0.0338
     19 C         143.6655  141.0631  160.5275 C.ar    1  UNL1        0.0536
     20 C         142.6713  140.0317  160.9720 C.ar    1  UNL1        0.0045
     21 C         142.0721  139.0877  159.9721 C.ar    1  UNL1        0.0001
     22 C         142.4670  139.1752  158.5277 C.ar    1  UNL1       -0.0001
     23 C         143.4612  140.2067  158.0831 C.ar    1  UNL1        0.0001
     24 C         144.0604  141.1507  159.0830 C.ar    1  UNL1        0.0045
     25 N         143.6224  143.3387  161.7804 N.am    1  UNL1       -0.2761
     26 C         144.2648  142.0071  161.5274 C.2     1  UNL1        0.2490
     27 O         145.5065  141.6194  162.2743 O.2     1  UNL1       -0.2699
     28 C         143.9165  144.1218  164.2401 C.3     1  UNL1        0.0233
     29 C         144.2216  144.2827  162.7803 C.3     1  UNL1        0.0938
     30 C         142.3806  143.7265  161.0335 C.3     1  UNL1        0.0938
     31 C         141.0315  143.4676  161.6358 C.3     1  UNL1        0.0233
@<TRIPOS>BOND
     1    28    29    1
     2    29    25    1
     3    25    30    1
     4    30    31    1
     5    25    26   am
     6    26    27    2
     7    26    19    1
     8    19    20   ar
     9    20    21   ar
    10    21    22   ar
    11    22     1    1
    12     1     2    2
    13     2     3    1
    14     3     4    1
    15     4     5    1
    16     5     6    1
    17     6     7   am
    18     7     8    1
    19     7     9    2
    20     6    10    1
    21    10    11    1
    22     3    12    1
    23    12    13    1
    24    13    14   ar
    25    14    15   ar
    26    15    16   ar
    27    16    17   ar
    28    17    18   ar
    29    22    23   ar
    30    23    24   ar
    31    24    19   ar
    32    18     1    1
    33    11     3    1
    34    18    13   ar
@<TRIPOS>MOLECULE
*****
 31 34 0 0 0
SMALL
GASTEIGER

@<TRIPOS>ATOM
      1 C         140.3198  141.1743  163.9784 C.2     1  UNL1        0.0020
      2 C         140.7991  141.6383  165.3220 C.2     1  UNL1        0.0130
      3 C         140.6275  140.7581  166.5244 C.3     1  UNL1        0.1548
      4 C         141.2783  142.1022  166.6655 C.3     1  UNL1        0.0658
      5 C         141.7575  142.5660  168.0090 C.3     1  UNL1        0.0973
      6 N         141.5859  141.6859  169.2115 N.am    1  UNL1       -0.2793
      7 C         142.0652  142.1498  170.5551 C.2     1  UNL1        0.2261
      8 C         142.7160  143.4939  170.6961 C.3     1  UNL1        0.0948
      9 O         141.8936  141.2697  171.7575 O.2     1  UNL1       -0.2749
     10 C         140.9351  140.3418  169.0704 C.3     1  UNL1        0.0973
     11 C         140.4559  139.8780  167.7269 C.3     1  UNL1        0.0658
     12 O         139.9767  139.4140  166.3833 O.3     1  UNL1       -0.4784
     13 C         139.4975  138.9501  165.0398 C.ar    1  UNL1        0.1386
     14 C         138.8466  137.6060  164.8986 C.ar    1  UNL1        0.0369
     15 C         138.3674  137.1421  163.5551 C.ar    1  UNL1        0.0031
     16 C         138.5390  138.0223  162.3527 C.ar    1  UNL1        0.0002
     17 C         139.1898  139.3663  162.4937 C.ar    1  UNL1        0.0030
     18 C         139.6690  139.8303  163.8373 C.ar    1  UNL1        0.0338
     19 C         140.8346  143.8148  160.3710 C.ar    1  UNL1        0.0536
     20 C         139.7027  144.0596  161.3243 C.ar    1  UNL1        0.0045
     21 C         139.5311  143.1794  162.5268 C.ar    1  UNL1        0.0001
     22 C         140.4914  142.0545  162.7759 C.ar    1  UNL1       -0.0001
     23 C         141.6234  141.8096  161.8227 C.ar    1  UNL1        0.0001
     24 C         141.7950  142.6898  160.6202 C.ar    1  UNL1        0.0045
     25 N         140.1938  144.4434  157.9330 N.am    1  UNL1       -0.2761
     26 C         141.0062  144.6949  159.1686 C.2     1  UNL1        0.2490
     27 O         141.9902  145.8266  159.2018 O.2     1  UNL1       -0.2699
     28 C         139.5855  146.6001  156.6180 C.3     1  UNL1        0.0233
     29 C         140.3654  145.3236  156.7306 C.3     1  UNL1        0.0938
     30 C         139.2098  143.3117  157.8998 C.3     1  UNL1        0.0938
     31 C         139.6453  141.9525  157.4387 C.3     1  UNL1        0.0233
@<TRIPOS>BOND
     1    28    29    1
     2    29    25    1
     3    25    30    1
     4    30    31    1
     5    25    26   am
     6    26    27    2
     7    26    19    1
     8    19    20   ar
     9    20    21   ar
    10    21    22   ar
    11    22     1    1
    12     1     2    2
    13     2     3    1
    14     3     4    1
    15     4     5    1
    16     5     6    1
    17     6     7   am
    18     7     8    1
    19     7     9    2
    20     6    10    1
    21    10    11    1
    22     3    12    1
    23    12    13    1
    24    13    14   ar
    25    14    15   ar
    26    15    16   ar
    27    16    17   ar
    28    17    18   ar
    29    22    23   ar
    30    23    24   ar
    31    24    19   ar
    32    18     1    1
    33    11     3    1
    34    18    13   ar
@<TRIPOS>MOLECULE
*****
 31 34 0 0 0
SMALL
GASTEIGER

@<TRIPOS>ATOM
      1 C         140.6031  141.3116  163.6457 C.2     1  UNL1        0.0020
      2 C         140.4930  141.9911  164.9785 C.2     1  UNL1        0.0130
      3 C         140.5490  141.1816  166.2400 C.3     1  UNL1        0.1548
      4 C         140.3828  142.6706  166.3112 C.3     1  UNL1        0.0658
      5 C         140.2727  143.3501  167.6439 C.3     1  UNL1        0.0973
      6 N         140.3286  142.5405  168.9054 N.am    1  UNL1       -0.2793
      7 C         140.2185  143.2200  170.2382 C.2     1  UNL1        0.2261
      8 C         140.0523  144.7091  170.3093 C.3     1  UNL1        0.0948
      9 O         140.2745  142.4105  171.4997 O.2     1  UNL1       -0.2749
     10 C         140.4948  141.0515  168.8342 C.3     1  UNL1        0.0973
     11 C         140.6049  140.3720  167.5015 C.3     1  UNL1        0.0658
     12 O         140.7151  139.6924  166.1688 O.3     1  UNL1       -0.4784
     13 C         140.8253  139.0130  164.8361 C.ar    1  UNL1        0.1386
     14 C         140.9914  137.5239  164.7649 C.ar    1  UNL1        0.0369
     15 C         141.1016  136.8444  163.4322 C.ar    1  UNL1        0.0031
     16 C         141.0456  137.6540  162.1706 C.ar    1  UNL1        0.0002
     17 C         140.8795  139.1430  162.2418 C.ar    1  UNL1        0.0030
     18 C         140.7693  139.8226  163.5746 C.ar    1  UNL1        0.0338
     19 C         140.4352  143.7403  159.8611 C.ar    1  UNL1        0.0536
     20 C         139.1904  143.0951  160.3941 C.ar    1  UNL1        0.0045
     21 C         139.2464  142.2855  161.6556 C.ar    1  UNL1        0.0001
     22 C         140.5472  142.1212  162.3842 C.ar    1  UNL1       -0.0001
     23 C         141.7921  142.7664  161.8512 C.ar    1  UNL1        0.0001
     24 C         141.7361  143.5759  160.5897 C.ar    1  UNL1        0.0045
     25 N         140.6137  143.8893  157.2735 N.am    1  UNL1       -0.2761
     26 C         140.3792  144.5499  158.5996 C.2     1  UNL1        0.2490
     27 O         140.0887  146.0201  158.6642 O.2     1  UNL1       -0.2699
     28 C         141.7980  145.3626  155.4911 C.3     1  UNL1        0.0233
     29 C         140.5577  144.6989  156.0120 C.3     1  UNL1        0.0938
     30 C         140.9042  142.4191  157.2089 C.3     1  UNL1        0.0938
     31 C         142.3114  141.9408  157.0070 C.3     1  UNL1        0.0233
@<TRIPOS>BOND
     1    28    29    1
     2    29    25    1
     3    25    30    1
     4    30    31    1
     5    25    26   am
     6    26    27    2
     7    26    19    1
     8    19    20   ar
     9    20    21   ar
    10    21    22   ar
    11    22     1    1
    12     1     2    2
    13     2     3    1
    14     3     4    1
    15     4     5    1
    16     5     6    1
    17     6     7   am
    18     7     8    1
    19     7     9    2
    20     6    10    1
    21    10    11    1
    22     3    12    1
    23    12    13    1
    24    13    14   ar
    25    14    15   ar
    26    15    16   ar
    27    16    17   ar
    28    17    18   ar
    29    22    23   ar
    30    23    24   ar
    31    24    19   ar
    32    18     1    1
    33    11     3    1
    34    18    13   ar
@<TRIPOS>MOLECULE
*****
 31 34 0 0 0
SMALL
GASTEIGER

@<TRIPOS>ATOM
      1 C         141.5215  141.2096  162.0462 C.2     1  UNL1        0.0020
      2 C         142.6128  141.5150  161.0634 C.2     1  UNL1        0.0130
      3 C         142.3919  141.2759  159.5991 C.3     1  UNL1        0.1548
      4 C         143.7041  141.8204  160.0806 C.3     1  UNL1        0.0658
      5 C         144.7953  142.1257  159.0978 C.3     1  UNL1        0.0973
      6 N         144.5744  141.8866  157.6335 N.am    1  UNL1       -0.2793
      7 C         145.6657  142.1920  156.6507 C.2     1  UNL1        0.2261
      8 C         146.9778  142.7365  157.1322 C.3     1  UNL1        0.0948
      9 O         145.4448  141.9529  155.1865 O.2     1  UNL1       -0.2749
     10 C         143.2622  141.3421  157.1521 C.3     1  UNL1        0.0973
     11 C         142.1710  141.0368  158.1349 C.3     1  UNL1        0.0658
     12 O         141.0797  140.7314  159.1177 O.3     1  UNL1       -0.4784
     13 C         139.9885  140.4260  160.1005 C.ar    1  UNL1        0.1386
     14 C         138.6763  139.8815  159.6191 C.ar    1  UNL1        0.0369
     15 C         137.5851  139.5762  160.6019 C.ar    1  UNL1        0.0031
     16 C         137.8060  139.8153  162.0662 C.ar    1  UNL1        0.0002
     17 C         139.1181  140.3597  162.5476 C.ar    1  UNL1        0.0030
     18 C         140.2094  140.6651  161.5648 C.ar    1  UNL1        0.0338
     19 C         142.1843  141.9269  166.4390 C.ar    1  UNL1        0.0536
     20 C         142.5859  140.6193  165.8236 C.ar    1  UNL1        0.0045
     21 C         142.3650  140.3802  164.3593 C.ar    1  UNL1        0.0001
     22 C         141.7425  141.4487  163.5105 C.ar    1  UNL1       -0.0001
     23 C         141.3407  142.7564  164.1258 C.ar    1  UNL1        0.0001
     24 C         141.5617  142.9955  165.5901 C.ar    1  UNL1        0.0045
     25 N         141.2892  141.9327  168.8780 N.am    1  UNL1       -0.2761
     26 C         142.4052  142.1660  167.9032 C.2     1  UNL1        0.2490
     27 O         143.7421  142.6384  168.3927 O.2     1  UNL1       -0.2699
     28 C         141.8831  141.0300  171.2407 C.3     1  UNL1        0.0233
     29 C         141.5102  142.1718  170.3422 C.3     1  UNL1        0.0938
     30 C         139.9523  141.4604  168.3885 C.3     1  UNL1        0.0938
     31 C         139.6512  139.9921  168.3296 C.3     1  UNL1        0.0233
@<TRIPOS>BOND
     1    28    29    1
     2    29    25    1
     3    25    30    1
     4    30    31    1
     5    25    26   am
     6    26    27    2
     7    26    19    1
     8    19    20   ar
     9    20    21   ar
    10    21    22   ar
    11    22     1    1
    12     1     2    2
    13     2     3    1
    14     3     4    1
    15     4     5    1
    16     5     6    1
    17     6     7   am
    18     7     8    1
    19     7     9    2
    20     6    10    1
    21    10    11    1
    22     3    12    1
    23    12    13    1
    24    13    14   ar
    25    14    15   ar
    26    15    16   ar
    27    16    17   ar
    28    17    18   ar
    29    22    23   ar
    30    23    24   ar
    31    24    19   ar
    32    18     1    1
    33    11     3    1
    34    18    13   ar
@<TRIPOS>MOLECULE
*****
 31 34 0 0 0
SMALL
GASTEIGER

@<TRIPOS>ATOM
      1 C         142.8352  139.5733  160.8033 C.2     1  UNL1        0.0020
      2 C         142.8486  138.4307  159.8315 C.2     1  UNL1        0.0130
      3 C         142.7118  138.6949  158.3613 C.3     1  UNL1        0.1548
      4 C         142.8620  137.2882  158.8597 C.3     1  UNL1        0.0658
      5 C         142.8754  136.1457  157.8879 C.3     1  UNL1        0.0973
      6 N         142.7386  136.4099  156.4177 N.am    1  UNL1       -0.2793
      7 C         142.7519  135.2673  155.4459 C.2     1  UNL1        0.2261
      8 C         142.9021  133.8605  155.9443 C.3     1  UNL1        0.0948
      9 O         142.6151  135.5315  153.9758 O.2     1  UNL1       -0.2749
     10 C         142.5884  137.8166  155.9193 C.3     1  UNL1        0.0973
     11 C         142.5750  138.9592  156.8911 C.3     1  UNL1        0.0658
     12 O         142.5616  140.1018  157.8629 O.3     1  UNL1       -0.4784
     13 C         142.5482  141.2443  158.8347 C.ar    1  UNL1        0.1386
     14 C         142.3980  142.6511  158.3363 C.ar    1  UNL1        0.0369
     15 C         142.3847  143.7937  159.3081 C.ar    1  UNL1        0.0031
     16 C         142.5215  143.5294  160.7783 C.ar    1  UNL1        0.0002
     17 C         142.6717  142.1227  161.2767 C.ar    1  UNL1        0.0030
     18 C         142.6851  140.9801  160.3049 C.ar    1  UNL1        0.0338
     19 C         143.2457  138.7807  165.2139 C.ar    1  UNL1        0.0536
     20 C         144.3294  139.5128  164.4794 C.ar    1  UNL1        0.0045
     21 C         144.1926  139.7770  163.0092 C.ar    1  UNL1        0.0001
     22 C         142.9721  139.3091  162.2735 C.ar    1  UNL1       -0.0001
     23 C         141.8883  138.5769  163.0080 C.ar    1  UNL1        0.0001
     24 C         142.0251  138.3127  164.4782 C.ar    1  UNL1        0.0045
     25 N         142.5395  139.2769  167.6644 N.am    1  UNL1       -0.2761
     26 C         143.3825  138.5164  166.6841 C.2     1  UNL1        0.2490
     27 O         144.3624  137.4917  167.1739 O.2     1  UNL1       -0.2699
     28 C         142.8218  140.1581  170.0921 C.3     1  UNL1        0.0233
     29 C         142.6764  139.0127  169.1346 C.3     1  UNL1        0.0938
     30 C         141.5597  140.3016  167.1746 C.3     1  UNL1        0.0938
     31 C         140.0883  140.0133  167.2178 C.3     1  UNL1        0.0233
@<TRIPOS>BOND
     1    28    29    1
     2    29    25    1
     3    25    30    1
     4    30    31    1
     5    25    26   am
     6    26    27    2
     7    26    19    1
     8    19    20   ar
     9    20    21   ar
    10    21    22   ar
    11    22     1    1
    12     1     2    2
    13     2     3    1
    14     3     4    1
    15     4     5    1
    16     5     6    1
    17     6     7   am
    18     7     8    1
    19     7     9    2
    20     6    10    1
    21    10    11    1
    22     3    12    1
    23    12    13    1
    24    13    14   ar
    25    14    15   ar
    26    15    16   ar
    27    16    17   ar
    28    17    18   ar
    29    22    23   ar
    30    23    24   ar
    31    24    19   ar
    32    18     1    1
    33    11     3    1
    34    18    13   ar
@<TRIPOS>MOLECULE
*****
 31 34 0 0 0
SMALL
GASTEIGER

@<TRIPOS>ATOM
      1 C         140.9987  141.1702  161.6096 C.2     1  UNL1        0.0020
      2 C         141.4242  140.0524  160.7043 C.2     1  UNL1        0.0130
      3 C         141.8545  140.3487  159.2981 C.3     1  UNL1        0.1548
      4 C         141.8498  138.9348  159.7989 C.3     1  UNL1        0.0658
      5 C         142.2754  137.8171  158.8935 C.3     1  UNL1        0.0973
      6 N         142.7056  138.1134  157.4874 N.am    1  UNL1       -0.2793
      7 C         143.1312  136.9957  156.5821 C.2     1  UNL1        0.2261
      8 C         143.1265  135.5818  157.0828 C.3     1  UNL1        0.0948
      9 O         143.5614  137.2919  155.1759 O.2     1  UNL1       -0.2749
     10 C         142.7102  139.5273  156.9867 C.3     1  UNL1        0.0973
     11 C         142.2847  140.6449  157.8920 C.3     1  UNL1        0.0658
     12 O         141.8591  141.7627  158.7974 O.3     1  UNL1       -0.4784
     13 C         141.4335  142.8803  159.7028 C.ar    1  UNL1        0.1386
     14 C         141.4381  144.2943  159.2020 C.ar    1  UNL1        0.0369
     15 C         141.0126  145.4120  160.1074 C.ar    1  UNL1        0.0031
     16 C         140.5824  145.1157  161.5135 C.ar    1  UNL1        0.0002
     17 C         140.5777  143.7018  162.0143 C.ar    1  UNL1        0.0030
     18 C         141.0033  142.5841  161.1089 C.ar    1  UNL1        0.0338
     19 C         139.7080  140.2814  165.8280 C.ar    1  UNL1        0.0536
     20 C         138.7443  140.9094  164.8653 C.ar    1  UNL1        0.0045
     21 C         139.1745  141.2056  163.4592 C.ar    1  UNL1        0.0001
     22 C         140.5684  140.8739  163.0157 C.ar    1  UNL1       -0.0001
     23 C         141.5323  140.2458  163.9784 C.ar    1  UNL1        0.0001
     24 C         141.1021  139.9496  165.3845 C.ar    1  UNL1        0.0045
     25 N         139.6954  140.8924  168.3531 N.am    1  UNL1       -0.2761
     26 C         139.2778  139.9851  167.2341 C.2     1  UNL1        0.2490
     27 O         138.4299  138.7814  167.5211 O.2     1  UNL1       -0.2699
     28 C         140.2178  139.9361  170.7117 C.3     1  UNL1        0.0233
     29 C         139.2652  140.5962  169.7592 C.3     1  UNL1        0.0938
     30 C         140.5433  142.0961  168.0661 C.3     1  UNL1        0.0938
     31 C         140.5359  143.2613  169.0106 C.3     1  UNL1        0.0233
@<TRIPOS>BOND
     1    28    29    1
     2    29    25    1
     3    25    30    1
     4    30    31    1
     5    25    26   am
     6    26    27    2
     7    26    19    1
     8    19    20   ar
     9    20    21   ar
    10    21    22   ar
    11    22     1    1
    12     1     2    2
    13     2     3    1
    14     3     4    1
    15     4     5    1
    16     5     6    1
    17     6     7   am
    18     7     8    1
    19     7     9    2
    20     6    10    1
    21    10    11    1
    22     3    12    1
    23    12    13    1
    24    13    14   ar
    25    14    15   ar
    26    15    16   ar
    27    16    17   ar
    28    17    18   ar
    29    22    23   ar
    30    23    24   ar
    31    24    19   ar
    32    18     1    1
    33    11     3    1
    34    18    13   ar
@<TRIPOS>MOLECULE
*****
 31 34 0 0 0
SMALL
GASTEIGER

@<TRIPOS>ATOM
      1 C         141.6680  140.3811  164.1909 C.2     1  UNL1        0.0020
      2 C         142.0182  141.0119  165.5061 C.2     1  UNL1        0.0130
      3 C         141.3079  140.5839  166.7560 C.3     1  UNL1        0.1548
      4 C         142.3684  141.6427  166.8211 C.3     1  UNL1        0.0658
      5 C         142.7186  142.2734  168.1362 C.3     1  UNL1        0.0973
      6 N         142.0083  141.8454  169.3861 N.am    1  UNL1       -0.2793
      7 C         142.3585  142.4762  170.7013 C.2     1  UNL1        0.2261
      8 C         143.4190  143.5350  170.7664 C.3     1  UNL1        0.0948
      9 O         141.6482  142.0482  171.9511 O.2     1  UNL1       -0.2749
     10 C         140.9478  140.7866  169.3209 C.3     1  UNL1        0.0973
     11 C         140.5976  140.1559  168.0059 C.3     1  UNL1        0.0658
     12 O         140.2474  139.5251  166.6907 O.3     1  UNL1       -0.4784
     13 C         139.8972  138.8943  165.3756 C.ar    1  UNL1        0.1386
     14 C         138.8366  137.8355  165.3104 C.ar    1  UNL1        0.0369
     15 C         138.4864  137.2047  163.9953 C.ar    1  UNL1        0.0031
     16 C         139.1968  137.6328  162.7454 C.ar    1  UNL1        0.0002
     17 C         140.2573  138.6915  162.8106 C.ar    1  UNL1        0.0030
     18 C         140.6075  139.3223  164.1257 C.ar    1  UNL1        0.0338
     19 C         143.7990  141.6652  160.4412 C.ar    1  UNL1        0.0536
     20 C         144.2832  140.4698  161.2072 C.ar    1  UNL1        0.0045
     21 C         143.5729  140.0418  162.4571 C.ar    1  UNL1        0.0001
     22 C         142.3783  140.8091  162.9410 C.ar    1  UNL1       -0.0001
     23 C         141.8941  142.0045  162.1751 C.ar    1  UNL1        0.0001
     24 C         142.6044  142.4325  160.9252 C.ar    1  UNL1        0.0045
     25 N         144.0242  141.6195  157.8534 N.am    1  UNL1       -0.2761
     26 C         144.5093  142.0932  159.1914 C.2     1  UNL1        0.2490
     27 O         145.7048  142.9950  159.2795 O.2     1  UNL1       -0.2699
     28 C         144.0046  142.8405  155.5601 C.3     1  UNL1        0.0233
     29 C         144.7345  142.0475  156.6035 C.3     1  UNL1        0.0938
     30 C         142.8287  140.7177  157.7652 C.3     1  UNL1        0.0938
     31 C         143.0060  139.2294  157.8235 C.3     1  UNL1        0.0233
@<TRIPOS>BOND
     1    28    29    1
     2    29    25    1
     3    25    30    1
     4    30    31    1
     5    25    26   am
     6    26    27    2
     7    26    19    1
     8    19    20   ar
     9    20    21   ar
    10    21    22   ar
    11    22     1    1
    12     1     2    2
    13     2     3    1
    14     3     4    1
    15     4     5    1
    16     5     6    1
    17     6     7   am
    18     7     8    1
    19     7     9    2
    20     6    10    1
    21    10    11    1
    22     3    12    1
    23    12    13    1
    24    13    14   ar
    25    14    15   ar
    26    15    16   ar
    27    16    17   ar
    28    17    18   ar
    29    22    23   ar
    30    23    24   ar
    31    24    19   ar
    32    18     1    1
    33    11     3    1
    34    18    13   ar
