@<TRIPOS>MOLECULE
*****
 35 38 0 0 0
SMALL
GASTEIGER

@<TRIPOS>ATOM
      1 C         140.3086  141.5648  167.4856 C.ar    1  UNL1        0.0533
      2 C         139.7473  140.5889  166.4942 C.ar    1  UNL1        0.0489
      3 C         138.8583  139.4742  166.9601 C.ar    1  UNL1        0.1345
      4 N         138.5305  139.3354  168.4172 N.ar    1  UNL1       -0.2288
      5 C         139.0918  140.3112  169.4085 C.ar    1  UNL1        0.1060
      6 C         139.9808  141.4259  168.9427 C.ar    1  UNL1        0.0854
      7 C         140.5421  142.4017  169.9340 C.2     1  UNL1        0.2455
      8 N         139.6849  142.9077  171.0561 N.am    1  UNL1       -0.3252
      9 O         141.9606  142.8716  169.8032 O.2     1  UNL1       -0.2703
     10 H         138.7539  142.5993  171.1420 H       1  UNL1        0.1453
     11 H         140.0533  143.5482  171.7068 H       1  UNL1        0.1453
     12 N         141.1976  142.6795  167.0197 N.pl3   1  UNL1       -0.3337
     13 H         141.7478  143.1744  167.6690 H       1  UNL1        0.1468
     14 N         141.3497  143.7616  162.6544 N.pl3   1  UNL1       -0.2931
     15 C         140.2030  144.2257  163.5026 C.3     1  UNL1        0.0939
     16 C         140.1523  143.8650  164.9577 C.3     1  UNL1        0.0410
     17 C         141.2483  143.0402  165.5646 C.3     1  UNL1        0.0724
     18 C         142.3950  142.5761  164.7164 C.3     1  UNL1        0.0410
     19 C         142.4457  142.9368  163.2613 C.3     1  UNL1        0.0939
     20 C         141.5018  144.8437  158.2891 C.ar    1  UNL1        0.0877
     21 C         142.4616  143.8342  158.8454 C.ar    1  UNL1        0.0147
     22 C         142.4109  143.4735  160.3005 C.ar    1  UNL1        0.0350
     23 C         141.4004  144.1223  161.1993 C.ar    1  UNL1        0.1317
     24 N         140.4406  145.1318  160.6429 N.ar    1  UNL1       -0.2285
     25 C         140.4913  145.4925  159.1878 C.ar    1  UNL1        0.1105
     26 N         141.6032  145.5651  155.3789 N.1     1  UNL1       -0.1908
     27 C         141.5525  145.2044  156.8340 C.1     1  UNL1        0.1020
     28 N         138.2969  138.4983  165.9688 N.pl3   1  UNL1       -0.2832
     29 H         137.4240  138.0747  166.1352 H       1  UNL1        0.1550
     30 C         139.0657  138.1679  164.7239 C.ar    1  UNL1        0.1365
     31 C         140.3880  137.4665  164.8229 C.ar    1  UNL1        0.0551
     32 C         141.1568  137.1361  163.5780 C.ar    1  UNL1        0.1036
     33 N         140.6034  137.5071  162.2341 N.ar    1  UNL1       -0.2223
     34 C         139.2812  138.2084  162.1351 C.ar    1  UNL1        0.2001
     35 N         138.5124  138.5388  163.3800 N.ar    1  UNL1       -0.2089
@<TRIPOS>BOND
     1    26    27    3
     2    27    20    1
     3    20    21   ar
     4    21    22   ar
     5    22    23   ar
     6    23    14    1
     7    14    15    1
     8    15    16    1
     9    16    17    1
    10    17    12    1
    11    12     1    1
    12     1     2   ar
    13     2     3   ar
    14     3    28    1
    15    28    30    1
    16    30    31   ar
    17    31    32   ar
    18    32    33   ar
    19    33    34   ar
    20    34    35   ar
    21     3     4   ar
    22     4     5   ar
    23     5     6   ar
    24     6     7    1
    25     7     8   am
    26     7     9    2
    27    17    18    1
    28    18    19    1
    29    23    24   ar
    30    24    25   ar
    31    25    20   ar
    32    19    14    1
    33     6     1   ar
    34    35    30   ar
    35    12    13    1
    36    28    29    1
    37     8    10    1
    38     8    11    1
@<TRIPOS>MOLECULE
*****
 35 38 0 0 0
SMALL
GASTEIGER

@<TRIPOS>ATOM
      1 C         141.4825  141.6269  167.8652 C.ar    1  UNL1        0.0533
      2 C         140.4281  140.8516  167.1321 C.ar    1  UNL1        0.0489
      3 C         139.4997  139.9482  167.8882 C.ar    1  UNL1        0.1345
      4 N         139.6255  139.8198  169.3774 N.ar    1  UNL1       -0.2288
      5 C         140.6798  140.5950  170.1105 C.ar    1  UNL1        0.1060
      6 C         141.6083  141.4985  169.3544 C.ar    1  UNL1        0.0854
      7 C         142.6626  142.2737  170.0876 C.2     1  UNL1        0.2455
      8 N         142.4026  142.7591  171.4828 N.am    1  UNL1       -0.3252
      9 O         143.9770  142.5634  169.4255 O.2     1  UNL1       -0.2703
     10 H         141.5399  142.5690  171.9174 H       1  UNL1        0.1453
     11 H         143.0946  143.2679  171.9640 H       1  UNL1        0.1453
     12 N         142.4109  142.5303  167.1092 N.pl3   1  UNL1       -0.3337
     13 H         142.8259  143.2998  167.5618 H       1  UNL1        0.1468
     14 N         143.2995  141.7235  162.7722 N.pl3   1  UNL1       -0.2931
     15 C         143.8706  140.8306  163.8335 C.3     1  UNL1        0.0939
     16 C         143.5744  141.0995  165.2792 C.3     1  UNL1        0.0410
     17 C         142.7071  142.2614  165.6635 C.3     1  UNL1        0.0724
     18 C         142.1359  143.1543  164.6022 C.3     1  UNL1        0.0410
     19 C         142.4321  142.8853  163.1565 C.3     1  UNL1        0.0939
     20 C         144.1880  140.9166  158.4352 C.ar    1  UNL1        0.0877
     21 C         144.4259  142.2823  159.0080 C.ar    1  UNL1        0.0147
     22 C         144.1297  142.5513  160.4537 C.ar    1  UNL1        0.0350
     23 C         143.5956  141.4545  161.3265 C.ar    1  UNL1        0.1317
     24 N         143.3577  140.0888  160.7537 N.ar    1  UNL1       -0.2285
     25 C         143.6539  139.8199  159.3080 C.ar    1  UNL1        0.1105
     26 N         144.7803  140.3787  155.5439 N.1     1  UNL1       -0.1908
     27 C         144.4841  140.6477  156.9895 C.1     1  UNL1        0.1020
     28 N         138.4453  139.1729  167.1550 N.pl3   1  UNL1       -0.2832
     29 H         137.7251  138.7262  167.6560 H       1  UNL1        0.1550
     30 C         138.4882  139.0785  165.6586 C.ar    1  UNL1        0.1365
     31 C         138.9867  137.8263  165.0002 C.ar    1  UNL1        0.0551
     32 C         139.0296  137.7318  163.5038 C.ar    1  UNL1        0.1036
     33 N         138.5741  138.8896  162.6658 N.ar    1  UNL1       -0.2223
     34 C         138.0757  140.1418  163.3243 C.ar    1  UNL1        0.2001
     35 N         138.0328  140.2362  164.8207 N.ar    1  UNL1       -0.2089
@<TRIPOS>BOND
     1    26    27    3
     2    27    20    1
     3    20    21   ar
     4    21    22   ar
     5    22    23   ar
     6    23    14    1
     7    14    15    1
     8    15    16    1
     9    16    17    1
    10    17    12    1
    11    12     1    1
    12     1     2   ar
    13     2     3   ar
    14     3    28    1
    15    28    30    1
    16    30    31   ar
    17    31    32   ar
    18    32    33   ar
    19    33    34   ar
    20    34    35   ar
    21     3     4   ar
    22     4     5   ar
    23     5     6   ar
    24     6     7    1
    25     7     8   am
    26     7     9    2
    27    17    18    1
    28    18    19    1
    29    23    24   ar
    30    24    25   ar
    31    25    20   ar
    32    19    14    1
    33     6     1   ar
    34    35    30   ar
    35    12    13    1
    36    28    29    1
    37     8    10    1
    38     8    11    1
@<TRIPOS>MOLECULE
*****
 35 38 0 0 0
SMALL
GASTEIGER

@<TRIPOS>ATOM
      1 C         138.6859  140.1762  158.2897 C.ar    1  UNL1        0.0533
      2 C         140.0865  139.6977  158.5338 C.ar    1  UNL1        0.0489
      3 C         141.1665  139.9991  157.5375 C.ar    1  UNL1        0.1345
      4 N         140.8460  140.7791  156.2970 N.ar    1  UNL1       -0.2288
      5 C         139.4456  141.2577  156.0528 C.ar    1  UNL1        0.1060
      6 C         138.3655  140.9563  157.0492 C.ar    1  UNL1        0.0854
      7 C         136.9651  141.4348  156.8050 C.2     1  UNL1        0.2455
      8 N         136.7081  142.8828  156.5095 N.am    1  UNL1       -0.3252
      9 O         135.8216  140.4654  156.8563 O.2     1  UNL1       -0.2703
     10 H         137.4586  143.5191  156.4758 H       1  UNL1        0.1453
     11 H         135.7889  143.1969  156.3492 H       1  UNL1        0.1453
     12 N         137.6060  139.8748  159.2860 N.pl3   1  UNL1       -0.3337
     13 H         136.7008  139.6430  158.9758 H       1  UNL1        0.1468
     14 N         138.5031  140.0299  163.6929 N.pl3   1  UNL1       -0.2931
     15 C         138.2708  141.3001  162.9297 C.3     1  UNL1        0.0939
     16 C         137.9718  141.2484  161.4607 C.3     1  UNL1        0.0410
     17 C         137.9050  139.9265  160.7550 C.3     1  UNL1        0.0724
     18 C         138.1373  138.6563  161.5182 C.3     1  UNL1        0.0410
     19 C         138.4364  138.7080  162.9872 C.3     1  UNL1        0.0939
     20 C         139.4003  140.1851  168.0998 C.ar    1  UNL1        0.0877
     21 C         138.4219  139.1799  167.5686 C.ar    1  UNL1        0.0147
     22 C         138.1228  139.1282  166.0996 C.ar    1  UNL1        0.0350
     23 C         138.8022  140.0817  165.1619 C.ar    1  UNL1        0.1317
     24 N         139.7806  141.0868  165.6932 N.ar    1  UNL1       -0.2285
     25 C         140.0797  141.1385  167.1621 C.ar    1  UNL1        0.1105
     26 N         139.9984  140.2885  171.0378 N.1     1  UNL1       -0.1908
     27 C         139.6994  140.2368  169.5688 C.1     1  UNL1        0.1020
     28 N         142.5670  139.5205  157.7817 N.pl3   1  UNL1       -0.2832
     29 H         143.1456  139.2830  157.0214 H       1  UNL1        0.1550
     30 C         143.0859  139.4038  159.1842 C.ar    1  UNL1        0.1365
     31 C         143.4132  140.6401  159.9682 C.ar    1  UNL1        0.0551
     32 C         143.9320  140.5234  161.3707 C.ar    1  UNL1        0.1036
     33 N         144.1236  139.1703  161.9894 N.ar    1  UNL1       -0.2223
     34 C         143.7963  137.9341  161.2054 C.ar    1  UNL1        0.2001
     35 N         143.2774  138.0508  159.8029 N.ar    1  UNL1       -0.2089
@<TRIPOS>BOND
     1    26    27    3
     2    27    20    1
     3    20    21   ar
     4    21    22   ar
     5    22    23   ar
     6    23    14    1
     7    14    15    1
     8    15    16    1
     9    16    17    1
    10    17    12    1
    11    12     1    1
    12     1     2   ar
    13     2     3   ar
    14     3    28    1
    15    28    30    1
    16    30    31   ar
    17    31    32   ar
    18    32    33   ar
    19    33    34   ar
    20    34    35   ar
    21     3     4   ar
    22     4     5   ar
    23     5     6   ar
    24     6     7    1
    25     7     8   am
    26     7     9    2
    27    17    18    1
    28    18    19    1
    29    23    24   ar
    30    24    25   ar
    31    25    20   ar
    32    19    14    1
    33     6     1   ar
    34    35    30   ar
    35    12    13    1
    36    28    29    1
    37     8    10    1
    38     8    11    1
@<TRIPOS>MOLECULE
*****
 35 38 0 0 0
SMALL
GASTEIGER

@<TRIPOS>ATOM
      1 C         141.4244  140.6987  167.1458 C.ar    1  UNL1        0.0533
      2 C         142.3910  141.5187  166.3436 C.ar    1  UNL1        0.0489
      3 C         143.3460  142.4440  167.0378 C.ar    1  UNL1        0.1345
      4 N         143.3343  142.5494  168.5340 N.ar    1  UNL1       -0.2288
      5 C         142.3677  141.7295  169.3361 C.ar    1  UNL1        0.1060
      6 C         141.4127  140.8042  168.6420 C.ar    1  UNL1        0.0854
      7 C         140.4462  139.9843  169.4441 C.2     1  UNL1        0.2455
      8 N         140.8895  139.3433  170.7258 N.am    1  UNL1       -0.3252
      9 O         139.0362  139.8053  168.9646 O.2     1  UNL1       -0.2703
     10 H         141.8150  139.4607  171.0405 H       1  UNL1        0.1453
     11 H         140.2551  138.8051  171.2522 H       1  UNL1        0.1453
     12 N         140.4695  139.7734  166.4516 N.pl3   1  UNL1       -0.3337
     13 H         139.7243  139.3691  166.9521 H       1  UNL1        0.1468
     14 N         141.0107  138.8455  162.0817 N.pl3   1  UNL1       -0.2931
     15 C         140.0621  139.9268  162.5070 C.3     1  UNL1        0.0939
     16 C         139.8817  140.2361  163.9636 C.3     1  UNL1        0.0410
     17 C         140.6499  139.4641  164.9950 C.3     1  UNL1        0.0724
     18 C         141.5985  138.3828  164.5698 C.3     1  UNL1        0.0410
     19 C         141.7789  138.0735  163.1131 C.3     1  UNL1        0.0939
     20 C         141.5520  137.9176  157.7118 C.ar    1  UNL1        0.0877
     21 C         142.7043  137.7633  158.6596 C.ar    1  UNL1        0.0147
     22 C         142.5238  138.0726  160.1163 C.ar    1  UNL1        0.0350
     23 C         141.1912  138.5362  160.6251 C.ar    1  UNL1        0.1317
     24 N         140.0389  138.6905  159.6773 N.ar    1  UNL1       -0.2285
     25 C         140.2193  138.3812  158.2206 C.ar    1  UNL1        0.1105
     26 N         141.9128  137.2990  154.7986 N.1     1  UNL1       -0.1908
     27 C         141.7324  137.6083  156.2552 C.1     1  UNL1        0.1020
     28 N         144.3126  143.2640  166.2356 N.pl3   1  UNL1       -0.2832
     29 H         144.9132  143.8993  166.6883 H       1  UNL1        0.1550
     30 C         144.3642  143.1159  164.7439 C.ar    1  UNL1        0.1365
     31 C         145.2718  142.0961  164.1223 C.ar    1  UNL1        0.0551
     32 C         145.3234  141.9480  162.6305 C.ar    1  UNL1        0.1036
     33 N         144.4672  142.8197  161.7603 N.ar    1  UNL1       -0.2223
     34 C         143.5596  143.8395  162.3818 C.ar    1  UNL1        0.2001
     35 N         143.5081  143.9876  163.8736 N.ar    1  UNL1       -0.2089
@<TRIPOS>BOND
     1    26    27    3
     2    27    20    1
     3    20    21   ar
     4    21    22   ar
     5    22    23   ar
     6    23    14    1
     7    14    15    1
     8    15    16    1
     9    16    17    1
    10    17    12    1
    11    12     1    1
    12     1     2   ar
    13     2     3   ar
    14     3    28    1
    15    28    30    1
    16    30    31   ar
    17    31    32   ar
    18    32    33   ar
    19    33    34   ar
    20    34    35   ar
    21     3     4   ar
    22     4     5   ar
    23     5     6   ar
    24     6     7    1
    25     7     8   am
    26     7     9    2
    27    17    18    1
    28    18    19    1
    29    23    24   ar
    30    24    25   ar
    31    25    20   ar
    32    19    14    1
    33     6     1   ar
    34    35    30   ar
    35    12    13    1
    36    28    29    1
    37     8    10    1
    38     8    11    1
@<TRIPOS>MOLECULE
*****
 35 38 0 0 0
SMALL
GASTEIGER

@<TRIPOS>ATOM
      1 C         139.8334  143.9732  159.0994 C.ar    1  UNL1        0.0533
      2 C         139.1640  142.6397  159.2542 C.ar    1  UNL1        0.0489
      3 C         138.7544  141.8606  158.0397 C.ar    1  UNL1        0.1345
      4 N         139.0141  142.4148  156.6703 N.ar    1  UNL1       -0.2288
      5 C         139.6835  143.7482  156.5153 C.ar    1  UNL1        0.1060
      6 C         140.0932  144.5274  157.7299 C.ar    1  UNL1        0.0854
      7 C         140.7625  145.8607  157.5750 C.2     1  UNL1        0.2455
      8 N         140.0412  146.9878  156.8973 N.am    1  UNL1       -0.3252
      9 O         142.1532  146.0670  158.0978 O.2     1  UNL1       -0.2703
     10 H         139.1284  146.8525  156.5541 H       1  UNL1        0.1453
     11 H         140.4806  147.8630  156.7956 H       1  UNL1        0.1453
     12 N         140.2430  144.7523  160.3139 N.pl3   1  UNL1       -0.3337
     13 H         140.5504  145.6830  160.2211 H       1  UNL1        0.1468
     14 N         140.0671  142.8358  164.3816 N.pl3   1  UNL1       -0.2931
     15 C         141.2132  142.5377  163.4610 C.3     1  UNL1        0.0939
     16 C         141.2718  143.1765  162.1051 C.3     1  UNL1        0.0410
     17 C         140.1844  144.1134  161.6698 C.3     1  UNL1        0.0724
     18 C         139.0383  144.4115  162.5904 C.3     1  UNL1        0.0410
     19 C         138.9796  143.7727  163.9463 C.3     1  UNL1        0.0939
     20 C         139.8912  140.9192  168.4492 C.ar    1  UNL1        0.0877
     21 C         139.3972  140.1720  167.2461 C.ar    1  UNL1        0.0147
     22 C         139.4559  140.8108  165.8902 C.ar    1  UNL1        0.0350
     23 C         140.0085  142.1969  165.7374 C.ar    1  UNL1        0.1317
     24 N         140.5024  142.9442  166.9406 N.ar    1  UNL1       -0.2285
     25 C         140.4438  142.3053  168.2965 C.ar    1  UNL1        0.1105
     26 N         139.7739  139.6416  171.1610 N.1     1  UNL1       -0.1908
     27 C         139.8325  140.2804  169.8051 C.1     1  UNL1        0.1020
     28 N         138.0850  140.5271  158.1946 N.pl3   1  UNL1       -0.2832
     29 H         137.4678  140.2025  157.4996 H       1  UNL1        0.1550
     30 C         138.3559  139.6884  159.4083 C.ar    1  UNL1        0.1365
     31 C         139.6279  138.8993  159.5059 C.ar    1  UNL1        0.0551
     32 C         139.8988  138.0605  160.7196 C.ar    1  UNL1        0.1036
     33 N         138.8978  138.0109  161.8357 N.ar    1  UNL1       -0.2223
     34 C         137.6259  138.8000  161.7381 C.ar    1  UNL1        0.2001
     35 N         137.3550  139.6388  160.5243 N.ar    1  UNL1       -0.2089
@<TRIPOS>BOND
     1    26    27    3
     2    27    20    1
     3    20    21   ar
     4    21    22   ar
     5    22    23   ar
     6    23    14    1
     7    14    15    1
     8    15    16    1
     9    16    17    1
    10    17    12    1
    11    12     1    1
    12     1     2   ar
    13     2     3   ar
    14     3    28    1
    15    28    30    1
    16    30    31   ar
    17    31    32   ar
    18    32    33   ar
    19    33    34   ar
    20    34    35   ar
    21     3     4   ar
    22     4     5   ar
    23     5     6   ar
    24     6     7    1
    25     7     8   am
    26     7     9    2
    27    17    18    1
    28    18    19    1
    29    23    24   ar
    30    24    25   ar
    31    25    20   ar
    32    19    14    1
    33     6     1   ar
    34    35    30   ar
    35    12    13    1
    36    28    29    1
    37     8    10    1
    38     8    11    1
@<TRIPOS>MOLECULE
*****
 35 38 0 0 0
SMALL
GASTEIGER

@<TRIPOS>ATOM
      1 C         143.6576  142.7302  159.3488 C.ar    1  UNL1        0.0533
      2 C         142.2224  143.0710  159.6214 C.ar    1  UNL1        0.0489
      3 C         141.2722  143.2837  158.4805 C.ar    1  UNL1        0.1345
      4 N         141.7571  143.1555  157.0668 N.ar    1  UNL1       -0.2288
      5 C         143.1922  142.8148  156.7941 C.ar    1  UNL1        0.1060
      6 C         144.1425  142.6021  157.9351 C.ar    1  UNL1        0.0854
      7 C         145.5775  142.2614  157.6624 C.2     1  UNL1        0.2455
      8 N         145.9171  141.1245  156.7447 N.am    1  UNL1       -0.3252
      9 O         146.6730  143.0575  158.3073 O.2     1  UNL1       -0.2703
     10 H         145.1981  140.6019  156.3214 H       1  UNL1        0.1453
     11 H         146.8590  140.9008  156.5657 H       1  UNL1        0.1453
     12 N         144.6078  142.5176  160.4897 N.pl3   1  UNL1       -0.3337
     13 H         145.5686  142.3944  160.3138 H       1  UNL1        0.1468
     14 N         143.0669  142.4427  164.7170 N.pl3   1  UNL1       -0.2931
     15 C         142.9863  141.2092  163.8674 C.3     1  UNL1        0.0939
     16 C         143.4999  141.2342  162.4583 C.3     1  UNL1        0.0410
     17 C         144.0942  142.4926  161.8988 C.3     1  UNL1        0.0724
     18 C         144.1748  143.7262  162.7484 C.3     1  UNL1        0.0410
     19 C         143.6611  143.7012  164.1575 C.3     1  UNL1        0.0939
     20 C         141.5260  142.3679  168.9443 C.ar    1  UNL1        0.0877
     21 C         143.0028  142.3367  168.6837 C.ar    1  UNL1        0.0147
     22 C         143.5164  142.3616  167.2746 C.ar    1  UNL1        0.0350
     23 C         142.5533  142.4178  166.1261 C.ar    1  UNL1        0.1317
     24 N         141.0764  142.4490  166.3867 N.ar    1  UNL1       -0.2285
     25 C         140.5628  142.4240  167.7958 C.ar    1  UNL1        0.1105
     26 N         140.4987  142.3180  171.7625 N.1     1  UNL1       -0.1908
     27 C         141.0124  142.3429  170.3534 C.1     1  UNL1        0.1020
     28 N         139.8371  143.6244  158.7531 N.pl3   1  UNL1       -0.2832
     29 H         139.3921  144.3327  158.2339 H       1  UNL1        0.1550
     30 C         139.0800  142.8860  159.8168 C.ar    1  UNL1        0.1365
     31 C         138.7005  141.4499  159.6075 C.ar    1  UNL1        0.0551
     32 C         137.9434  140.7115  160.6712 C.ar    1  UNL1        0.1036
     33 N         137.5657  141.4092  161.9443 N.ar    1  UNL1       -0.2223
     34 C         137.9451  142.8452  162.1536 C.ar    1  UNL1        0.2001
     35 N         138.7023  143.5836  161.0899 N.ar    1  UNL1       -0.2089
@<TRIPOS>BOND
     1    26    27    3
     2    27    20    1
     3    20    21   ar
     4    21    22   ar
     5    22    23   ar
     6    23    14    1
     7    14    15    1
     8    15    16    1
     9    16    17    1
    10    17    12    1
    11    12     1    1
    12     1     2   ar
    13     2     3   ar
    14     3    28    1
    15    28    30    1
    16    30    31   ar
    17    31    32   ar
    18    32    33   ar
    19    33    34   ar
    20    34    35   ar
    21     3     4   ar
    22     4     5   ar
    23     5     6   ar
    24     6     7    1
    25     7     8   am
    26     7     9    2
    27    17    18    1
    28    18    19    1
    29    23    24   ar
    30    24    25   ar
    31    25    20   ar
    32    19    14    1
    33     6     1   ar
    34    35    30   ar
    35    12    13    1
    36    28    29    1
    37     8    10    1
    38     8    11    1
@<TRIPOS>MOLECULE
*****
 35 38 0 0 0
SMALL
GASTEIGER

@<TRIPOS>ATOM
      1 C         138.8785  141.6057  158.3227 C.ar    1  UNL1        0.0533
      2 C         139.8092  142.6331  158.8957 C.ar    1  UNL1        0.0489
      3 C         140.0355  143.9270  158.1715 C.ar    1  UNL1        0.1345
      4 N         139.3311  144.1936  156.8743 N.ar    1  UNL1       -0.2288
      5 C         138.4004  143.1663  156.3013 C.ar    1  UNL1        0.1060
      6 C         138.1741  141.8723  157.0255 C.ar    1  UNL1        0.0854
      7 C         137.2434  140.8450  156.4525 C.2     1  UNL1        0.2455
      8 N         135.7847  141.1581  156.2970 N.am    1  UNL1       -0.3252
      9 O         137.7714  139.5045  156.0349 O.2     1  UNL1       -0.2703
     10 H         135.4381  142.0379  156.5711 H       1  UNL1        0.1453
     11 H         135.1738  140.4838  155.9209 H       1  UNL1        0.1453
     12 N         138.6522  140.3118  159.0469 N.pl3   1  UNL1       -0.3337
     13 H         138.4229  139.4985  158.5417 H       1  UNL1        0.1468
     14 N         139.0211  140.1473  163.5287 N.pl3   1  UNL1       -0.2931
     15 C         140.1071  139.5771  162.6654 C.3     1  UNL1        0.0939
     16 C         139.9841  139.6319  161.1714 C.3     1  UNL1        0.0410
     17 C         138.7752  140.2569  160.5408 C.3     1  UNL1        0.0724
     18 C         137.6892  140.8272  161.4042 C.3     1  UNL1        0.0410
     19 C         137.8121  140.7724  162.8981 C.3     1  UNL1        0.0939
     20 C         139.3900  139.9829  168.0106 C.ar    1  UNL1        0.0877
     21 C         138.3255  139.1866  167.3159 C.ar    1  UNL1        0.0147
     22 C         138.2025  139.2414  165.8220 C.ar    1  UNL1        0.0350
     23 C         139.1441  140.0925  165.0227 C.ar    1  UNL1        0.1317
     24 N         140.2086  140.8888  165.7173 N.ar    1  UNL1       -0.2285
     25 C         140.3316  140.8340  167.2112 C.ar    1  UNL1        0.1105
     26 N         139.6360  139.8732  170.9984 N.1     1  UNL1       -0.1908
     27 C         139.5130  139.9281  169.5045 C.1     1  UNL1        0.1020
     28 N         140.9662  144.9544  158.7445 N.pl3   1  UNL1       -0.2832
     29 H         141.3270  145.6672  158.1692 H       1  UNL1        0.1550
     30 C         141.3472  144.8958  160.1942 C.ar    1  UNL1        0.1365
     31 C         140.4772  145.5515  161.2254 C.ar    1  UNL1        0.0551
     32 C         140.8582  145.4929  162.6750 C.ar    1  UNL1        0.1036
     33 N         142.1091  144.7786  163.0934 N.ar    1  UNL1       -0.2223
     34 C         142.9789  144.1229  162.0623 C.ar    1  UNL1        0.2001
     35 N         142.5980  144.1815  160.6126 N.ar    1  UNL1       -0.2089
@<TRIPOS>BOND
     1    26    27    3
     2    27    20    1
     3    20    21   ar
     4    21    22   ar
     5    22    23   ar
     6    23    14    1
     7    14    15    1
     8    15    16    1
     9    16    17    1
    10    17    12    1
    11    12     1    1
    12     1     2   ar
    13     2     3   ar
    14     3    28    1
    15    28    30    1
    16    30    31   ar
    17    31    32   ar
    18    32    33   ar
    19    33    34   ar
    20    34    35   ar
    21     3     4   ar
    22     4     5   ar
    23     5     6   ar
    24     6     7    1
    25     7     8   am
    26     7     9    2
    27    17    18    1
    28    18    19    1
    29    23    24   ar
    30    24    25   ar
    31    25    20   ar
    32    19    14    1
    33     6     1   ar
    34    35    30   ar
    35    12    13    1
    36    28    29    1
    37     8    10    1
    38     8    11    1
@<TRIPOS>MOLECULE
*****
 35 38 0 0 0
SMALL
GASTEIGER

@<TRIPOS>ATOM
      1 C         143.5812  142.9296  159.6041 C.ar    1  UNL1        0.0533
      2 C         142.3339  143.6667  159.9929 C.ar    1  UNL1        0.0489
      3 C         141.4846  144.3122  158.9384 C.ar    1  UNL1        0.1345
      4 N         141.8825  144.2206  157.4951 N.ar    1  UNL1       -0.2288
      5 C         143.1297  143.4835  157.1062 C.ar    1  UNL1        0.1060
      6 C         143.9791  142.8380  158.1608 C.ar    1  UNL1        0.0854
      7 C         145.2263  142.1010  157.7719 C.2     1  UNL1        0.2455
      8 N         146.5224  142.8426  157.6301 N.am    1  UNL1       -0.3252
      9 O         145.1773  140.6223  157.5248 O.2     1  UNL1       -0.2703
     10 H         146.5545  143.8131  157.7923 H       1  UNL1        0.1453
     11 H         147.3409  142.3588  157.3749 H       1  UNL1        0.1453
     12 N         144.4305  142.2842  160.6586 N.pl3   1  UNL1       -0.3337
     13 H         145.2902  141.8715  160.4139 H       1  UNL1        0.1468
     14 N         143.0489  142.2338  164.9410 N.pl3   1  UNL1       -0.2931
     15 C         143.8080  143.4143  164.4117 C.3     1  UNL1        0.0939
     16 C         144.2685  143.4311  162.9842 C.3     1  UNL1        0.0410
     17 C         143.9699  142.2674  162.0861 C.3     1  UNL1        0.0724
     18 C         143.2108  141.0869  162.6154 C.3     1  UNL1        0.0410
     19 C         142.7503  141.0702  164.0429 C.3     1  UNL1        0.0939
     20 C         141.6674  142.1835  169.2234 C.ar    1  UNL1        0.0877
     21 C         140.6860  141.9386  168.1158 C.ar    1  UNL1        0.0147
     22 C         141.1465  141.9553  166.6883 C.ar    1  UNL1        0.0350
     23 C         142.5884  142.2170  166.3685 C.ar    1  UNL1        0.1317
     24 N         143.5698  142.4620  167.4761 N.ar    1  UNL1       -0.2285
     25 C         143.1093  142.4452  168.9035 C.ar    1  UNL1        0.1105
     26 N         140.7463  142.1499  172.0783 N.1     1  UNL1       -0.1908
     27 C         141.2068  142.1667  170.6508 C.1     1  UNL1        0.1020
     28 N         140.2374  145.0493  159.3272 N.pl3   1  UNL1       -0.2832
     29 H         139.8842  145.7605  158.7453 H       1  UNL1        0.1550
     30 C         139.5282  144.7027  160.6028 C.ar    1  UNL1        0.1365
     31 C         139.6666  145.5915  161.8032 C.ar    1  UNL1        0.0551
     32 C         138.9574  145.2449  163.0787 C.ar    1  UNL1        0.1036
     33 N         138.1099  144.0096  163.1538 N.ar    1  UNL1       -0.2223
     34 C         137.9715  143.1208  161.9534 C.ar    1  UNL1        0.2001
     35 N         138.6807  143.4674  160.6779 N.ar    1  UNL1       -0.2089
@<TRIPOS>BOND
     1    26    27    3
     2    27    20    1
     3    20    21   ar
     4    21    22   ar
     5    22    23   ar
     6    23    14    1
     7    14    15    1
     8    15    16    1
     9    16    17    1
    10    17    12    1
    11    12     1    1
    12     1     2   ar
    13     2     3   ar
    14     3    28    1
    15    28    30    1
    16    30    31   ar
    17    31    32   ar
    18    32    33   ar
    19    33    34   ar
    20    34    35   ar
    21     3     4   ar
    22     4     5   ar
    23     5     6   ar
    24     6     7    1
    25     7     8   am
    26     7     9    2
    27    17    18    1
    28    18    19    1
    29    23    24   ar
    30    24    25   ar
    31    25    20   ar
    32    19    14    1
    33     6     1   ar
    34    35    30   ar
    35    12    13    1
    36    28    29    1
    37     8    10    1
    38     8    11    1
@<TRIPOS>MOLECULE
*****
 35 38 0 0 0
SMALL
GASTEIGER

@<TRIPOS>ATOM
      1 C         140.1379  138.6564  163.5385 C.ar    1  UNL1        0.0533
      2 C         140.9849  138.8432  164.7623 C.ar    1  UNL1        0.0489
      3 C         140.4658  139.6454  165.9185 C.ar    1  UNL1        0.1345
      4 N         139.0995  140.2609  165.8510 N.ar    1  UNL1       -0.2288
      5 C         138.2525  140.0741  164.6272 C.ar    1  UNL1        0.1060
      6 C         138.7716  139.2718  163.4710 C.ar    1  UNL1        0.0854
      7 C         137.9246  139.0851  162.2472 C.2     1  UNL1        0.2455
      8 N         137.2968  140.2734  161.5810 N.am    1  UNL1       -0.3252
      9 O         137.7052  137.7100  161.6897 O.2     1  UNL1       -0.2703
     10 H         137.4408  141.1760  161.9470 H       1  UNL1        0.1453
     11 H         136.7409  140.1508  160.7779 H       1  UNL1        0.1453
     12 N         140.6570  137.8541  162.3823 N.pl3   1  UNL1       -0.3337
     13 H         140.4253  136.9007  162.3012 H       1  UNL1        0.1468
     14 N         143.2739  139.8050  159.2846 N.pl3   1  UNL1       -0.2931
     15 C         141.7875  139.7581  159.0889 C.3     1  UNL1        0.0939
     16 C         140.9152  139.1078  160.1215 C.3     1  UNL1        0.0410
     17 C         141.5293  138.5044  161.3498 C.3     1  UNL1        0.0724
     18 C         143.0157  138.5513  161.5455 C.3     1  UNL1        0.0410
     19 C         143.8880  139.2016  160.5129 C.3     1  UNL1        0.0939
     20 C         145.8908  141.7559  156.1869 C.ar    1  UNL1        0.0877
     21 C         145.5289  142.4990  157.4387 C.ar    1  UNL1        0.0147
     22 C         144.6566  141.8487  158.4712 C.ar    1  UNL1        0.0350
     23 C         144.1462  140.4553  158.2521 C.ar    1  UNL1        0.1317
     24 N         144.5082  139.7123  157.0003 N.ar    1  UNL1       -0.2285
     25 C         145.3805  140.3626  155.9678 C.ar    1  UNL1        0.1105
     26 N         147.6354  143.0566  154.1218 N.1     1  UNL1       -0.1908
     27 C         146.7631  142.4063  155.1544 C.1     1  UNL1        0.1020
     28 N         141.3128  139.8322  167.1423 N.pl3   1  UNL1       -0.2832
     29 H         142.2378  139.4954  167.1569 H       1  UNL1        0.1550
     30 C         140.7506  140.5322  168.3439 C.ar    1  UNL1        0.1365
     31 C         140.9757  142.0038  168.5282 C.ar    1  UNL1        0.0551
     32 C         140.4134  142.7038  169.7298 C.ar    1  UNL1        0.1036
     33 N         139.6260  141.9323  170.7471 N.ar    1  UNL1       -0.2223
     34 C         139.4009  140.4608  170.5628 C.ar    1  UNL1        0.2001
     35 N         139.9632  139.7608  169.3612 N.ar    1  UNL1       -0.2089
@<TRIPOS>BOND
     1    26    27    3
     2    27    20    1
     3    20    21   ar
     4    21    22   ar
     5    22    23   ar
     6    23    14    1
     7    14    15    1
     8    15    16    1
     9    16    17    1
    10    17    12    1
    11    12     1    1
    12     1     2   ar
    13     2     3   ar
    14     3    28    1
    15    28    30    1
    16    30    31   ar
    17    31    32   ar
    18    32    33   ar
    19    33    34   ar
    20    34    35   ar
    21     3     4   ar
    22     4     5   ar
    23     5     6   ar
    24     6     7    1
    25     7     8   am
    26     7     9    2
    27    17    18    1
    28    18    19    1
    29    23    24   ar
    30    24    25   ar
    31    25    20   ar
    32    19    14    1
    33     6     1   ar
    34    35    30   ar
    35    12    13    1
    36    28    29    1
    37     8    10    1
    38     8    11    1
