@<TRIPOS>MOLECULE
*****
 28 31 0 0 0
SMALL
GASTEIGER

@<TRIPOS>ATOM
      1 C         139.7870  140.5434  166.4939 C.2     1  UNL1        0.3341
      2 N         139.7287  141.6437  165.4761 N.2     1  UNL1       -0.0599
      3 C         139.4639  141.0226  164.1367 C.3     1  UNL1        0.2542
      4 C         139.3585  139.5384  164.3267 C.3     1  UNL1        0.2573
      5 N         139.5582  139.2423  165.7835 N.pl3   1  UNL1       -0.2136
      6 H         139.5419  138.3505  166.2003 H       1  UNL1        0.2924
      7 C         139.5163  142.4388  163.6452 C.ar    1  UNL1        0.0298
      8 C         138.2446  143.1784  163.3517 C.ar    1  UNL1        0.0025
      9 C         138.2970  144.5945  162.8603 C.ar    1  UNL1        0.0295
     10 C         139.6209  145.2713  162.6622 C.ar    1  UNL1        0.1401
     11 F         139.6732  146.6875  162.1707 F       1  UNL1       -0.2042
     12 C         140.8926  144.5318  162.9556 C.ar    1  UNL1        0.0295
     13 C         140.8403  143.1155  163.4471 C.ar    1  UNL1        0.0025
     14 C         139.2101  140.6976  162.6945 C.ar    1  UNL1        0.0298
     15 C         140.3418  140.7196  161.7103 C.ar    1  UNL1        0.0025
     16 C         140.0880  140.3945  160.2680 C.ar    1  UNL1        0.0295
     17 C         138.7024  140.0475  159.8102 C.ar    1  UNL1        0.1401
     18 F         138.4485  139.7224  158.3679 F       1  UNL1       -0.2042
     19 C         137.5707  140.0255  160.7944 C.ar    1  UNL1        0.0295
     20 C         137.8246  140.3505  162.2366 C.ar    1  UNL1        0.0025
     21 C         141.2944  141.8753  169.9150 C.ar    1  UNL1        0.0717
     22 C         140.5196  141.0561  170.9042 C.ar    1  UNL1        0.0310
     23 C         139.5006  140.0660  170.4233 C.ar    1  UNL1        0.0998
     24 N         139.2564  139.8951  168.9532 N.ar    1  UNL1       -0.2364
     25 C         140.0312  140.7143  167.9641 C.ar    1  UNL1        0.1633
     26 C         141.0502  141.7044  168.4449 C.ar    1  UNL1        0.0370
     27 N         143.3325  143.8556  170.8768 N.1     1  UNL1       -0.1908
     28 C         142.3135  142.8654  170.3959 C.1     1  UNL1        0.1005
@<TRIPOS>BOND
     1    27    28    3
     2    28    21    1
     3    21    22   ar
     4    22    23   ar
     5    23    24   ar
     6    24    25   ar
     7    25     1    1
     8     1     2    2
     9     2     3    1
    10     3     7    1
    11     7     8   ar
    12     8     9   ar
    13     9    10   ar
    14    10    11    1
    15    10    12   ar
    16    12    13   ar
    17     3    14    1
    18    14    15   ar
    19    15    16   ar
    20    16    17   ar
    21    17    18    1
    22    17    19   ar
    23    19    20   ar
    24     3     4    1
    25     4     5    1
    26    25    26   ar
    27    26    21   ar
    28     5     1    1
    29    13     7   ar
    30    20    14   ar
    31     5     6    1
@<TRIPOS>MOLECULE
*****
 28 31 0 0 0
SMALL
GASTEIGER

@<TRIPOS>ATOM
      1 C         140.8240  142.3629  163.0601 C.2     1  UNL1        0.3341
      2 N         140.2745  141.2386  163.8871 N.2     1  UNL1       -0.0599
      3 C         141.0039  141.2278  165.1977 C.3     1  UNL1        0.2542
      4 C         142.0042  142.3454  165.1807 C.3     1  UNL1        0.2573
      5 N         141.8930  143.0470  163.8596 N.pl3   1  UNL1       -0.2136
      6 H         142.4277  143.8206  163.5683 H       1  UNL1        0.2924
      7 C         140.1174  140.0568  165.5020 C.ar    1  UNL1        0.0298
      8 C         140.2442  138.7927  164.7043 C.ar    1  UNL1        0.0025
      9 C         139.3576  137.6217  165.0087 C.ar    1  UNL1        0.0295
     10 C         138.3442  137.7146  166.1107 C.ar    1  UNL1        0.1401
     11 F         137.4577  136.5435  166.4150 F       1  UNL1       -0.2042
     12 C         138.2174  138.9785  166.9084 C.ar    1  UNL1        0.0295
     13 C         139.1039  140.1496  166.6041 C.ar    1  UNL1        0.0025
     14 C         141.5480  140.9721  166.5720 C.ar    1  UNL1        0.0298
     15 C         141.4073  142.0156  167.6404 C.ar    1  UNL1        0.0025
     16 C         141.9514  141.7599  169.0147 C.ar    1  UNL1        0.0295
     17 C         142.6362  140.4609  169.3205 C.ar    1  UNL1        0.1401
     18 F         143.1803  140.2052  170.6948 F       1  UNL1       -0.2042
     19 C         142.7768  139.4175  168.2521 C.ar    1  UNL1        0.0295
     20 C         142.2327  139.6731  166.8778 C.ar    1  UNL1        0.0025
     21 C         140.7413  144.0929  159.4893 C.ar    1  UNL1        0.0717
     22 C         139.4981  143.4865  158.9092 C.ar    1  UNL1        0.0310
     23 C         138.6968  142.5055  159.7127 C.ar    1  UNL1        0.0998
     24 N         139.1387  142.1310  161.0963 N.ar    1  UNL1       -0.2364
     25 C         140.3820  142.7374  161.6764 C.ar    1  UNL1        0.1633
     26 C         141.1833  143.7184  160.8729 C.ar    1  UNL1        0.0370
     27 N         142.3440  146.0548  157.8822 N.1     1  UNL1       -0.1908
     28 C         141.5427  145.0738  158.6857 C.1     1  UNL1        0.1005
@<TRIPOS>BOND
     1    27    28    3
     2    28    21    1
     3    21    22   ar
     4    22    23   ar
     5    23    24   ar
     6    24    25   ar
     7    25     1    1
     8     1     2    2
     9     2     3    1
    10     3     7    1
    11     7     8   ar
    12     8     9   ar
    13     9    10   ar
    14    10    11    1
    15    10    12   ar
    16    12    13   ar
    17     3    14    1
    18    14    15   ar
    19    15    16   ar
    20    16    17   ar
    21    17    18    1
    22    17    19   ar
    23    19    20   ar
    24     3     4    1
    25     4     5    1
    26    25    26   ar
    27    26    21   ar
    28     5     1    1
    29    13     7   ar
    30    20    14   ar
    31     5     6    1
@<TRIPOS>MOLECULE
*****
 28 31 0 0 0
SMALL
GASTEIGER

@<TRIPOS>ATOM
      1 C         141.3188  138.7409  162.7566 C.2     1  UNL1        0.3341
      2 N         140.7391  139.9498  163.4292 N.2     1  UNL1       -0.0599
      3 C         140.7989  139.7289  164.9116 C.3     1  UNL1        0.2542
      4 C         141.4155  138.3833  165.1552 C.3     1  UNL1        0.2573
      5 N         141.7367  137.7727  163.8233 N.pl3   1  UNL1       -0.2136
      6 H         142.1495  136.8912  163.6752 H       1  UNL1        0.2924
      7 C         140.1672  141.0875  164.9810 C.ar    1  UNL1        0.0298
      8 C         140.9647  142.2615  165.4669 C.ar    1  UNL1        0.0025
      9 C         140.3330  143.6201  165.5362 C.ar    1  UNL1        0.0295
     10 C         138.9039  143.8050  165.1197 C.ar    1  UNL1        0.1401
     11 F         138.2722  145.1638  165.1891 F       1  UNL1       -0.2042
     12 C         138.1064  142.6312  164.6339 C.ar    1  UNL1        0.0295
     13 C         138.7381  141.2724  164.5645 C.ar    1  UNL1        0.0025
     14 C         140.7266  139.7919  166.4085 C.ar    1  UNL1        0.0298
     15 C         139.3938  139.8698  167.0924 C.ar    1  UNL1        0.0025
     16 C         139.3215  139.9329  168.5894 C.ar    1  UNL1        0.0295
     17 C         140.5820  139.9180  169.4024 C.ar    1  UNL1        0.1401
     18 F         140.5097  139.9811  170.8994 F       1  UNL1       -0.2042
     19 C         141.9147  139.8401  168.7184 C.ar    1  UNL1        0.0295
     20 C         141.9870  139.7771  167.2215 C.ar    1  UNL1        0.0025
     21 C         140.5104  138.7998  158.8716 C.ar    1  UNL1        0.0717
     22 C         141.7311  138.1265  158.3178 C.ar    1  UNL1        0.0310
     23 C         142.8143  137.6580  159.2436 C.ar    1  UNL1        0.0998
     24 N         142.6769  137.8628  160.7232 N.ar    1  UNL1       -0.2364
     25 C         141.4562  138.5361  161.2769 C.ar    1  UNL1        0.1633
     26 C         140.3730  139.0045  160.3511 C.ar    1  UNL1        0.0370
     27 N         138.3440  139.7368  157.0199 N.1     1  UNL1       -0.1908
     28 C         139.4272  139.2683  157.9457 C.1     1  UNL1        0.1005
@<TRIPOS>BOND
     1    27    28    3
     2    28    21    1
     3    21    22   ar
     4    22    23   ar
     5    23    24   ar
     6    24    25   ar
     7    25     1    1
     8     1     2    2
     9     2     3    1
    10     3     7    1
    11     7     8   ar
    12     8     9   ar
    13     9    10   ar
    14    10    11    1
    15    10    12   ar
    16    12    13   ar
    17     3    14    1
    18    14    15   ar
    19    15    16   ar
    20    16    17   ar
    21    17    18    1
    22    17    19   ar
    23    19    20   ar
    24     3     4    1
    25     4     5    1
    26    25    26   ar
    27    26    21   ar
    28     5     1    1
    29    13     7   ar
    30    20    14   ar
    31     5     6    1
@<TRIPOS>MOLECULE
*****
 28 31 0 0 0
SMALL
GASTEIGER

@<TRIPOS>ATOM
      1 C         140.5675  143.3747  162.2878 C.2     1  UNL1        0.3341
      2 N         140.2339  142.2079  163.1695 N.2     1  UNL1       -0.0599
      3 C         140.7811  142.4892  164.5375 C.3     1  UNL1        0.2542
      4 C         141.4528  143.8300  164.5013 C.3     1  UNL1        0.2573
      5 N         141.3208  144.3772  163.1109 N.pl3   1  UNL1       -0.2136
      6 H         141.6677  145.2424  162.7942 H       1  UNL1        0.2924
      7 C         140.1983  141.1488  164.8744 C.ar    1  UNL1        0.0298
      8 C         141.0760  139.9325  164.8925 C.ar    1  UNL1        0.0025
      9 C         140.4931  138.5921  165.2294 C.ar    1  UNL1        0.0295
     10 C         139.0326  138.4679  165.5482 C.ar    1  UNL1        0.1401
     11 F         138.4498  137.1274  165.8851 F       1  UNL1       -0.2042
     12 C         138.1550  139.6842  165.5301 C.ar    1  UNL1        0.0295
     13 C         138.7378  141.0247  165.1932 C.ar    1  UNL1        0.0025
     14 C         141.2064  142.4904  165.9759 C.ar    1  UNL1        0.0298
     15 C         142.6200  142.1456  166.3403 C.ar    1  UNL1        0.0025
     16 C         143.0454  142.1467  167.7787 C.ar    1  UNL1        0.0295
     17 C         142.0571  142.4927  168.8527 C.ar    1  UNL1        0.1401
     18 F         142.4825  142.4938  170.2912 F       1  UNL1       -0.2042
     19 C         140.6435  142.8374  168.4883 C.ar    1  UNL1        0.0295
     20 C         140.2182  142.8363  167.0499 C.ar    1  UNL1        0.0025
     21 C         138.9752  142.6314  158.7294 C.ar    1  UNL1        0.0717
     22 C         139.4962  143.7938  157.9374 C.ar    1  UNL1        0.0310
     23 C         140.3743  144.8165  158.5954 C.ar    1  UNL1        0.0998
     24 N         140.7314  144.6768  160.0456 N.ar    1  UNL1       -0.2364
     25 C         140.2104  143.5144  160.8376 C.ar    1  UNL1        0.1633
     26 C         139.3323  142.4917  160.1795 C.ar    1  UNL1        0.0370
     27 N         137.2191  140.5860  157.4133 N.1     1  UNL1       -0.1908
     28 C         138.0971  141.6087  158.0713 C.1     1  UNL1        0.1005
@<TRIPOS>BOND
     1    27    28    3
     2    28    21    1
     3    21    22   ar
     4    22    23   ar
     5    23    24   ar
     6    24    25   ar
     7    25     1    1
     8     1     2    2
     9     2     3    1
    10     3     7    1
    11     7     8   ar
    12     8     9   ar
    13     9    10   ar
    14    10    11    1
    15    10    12   ar
    16    12    13   ar
    17     3    14    1
    18    14    15   ar
    19    15    16   ar
    20    16    17   ar
    21    17    18    1
    22    17    19   ar
    23    19    20   ar
    24     3     4    1
    25     4     5    1
    26    25    26   ar
    27    26    21   ar
    28     5     1    1
    29    13     7   ar
    30    20    14   ar
    31     5     6    1
@<TRIPOS>MOLECULE
*****
 28 31 0 0 0
SMALL
GASTEIGER

@<TRIPOS>ATOM
      1 C         142.3699  140.0276  166.5984 C.2     1  UNL1        0.3341
      2 N         142.2641  140.8546  165.3514 N.2     1  UNL1       -0.0599
      3 C         142.4211  139.9394  164.1734 C.3     1  UNL1        0.2542
      4 C         142.6240  138.5467  164.6924 C.3     1  UNL1        0.2573
      5 N         142.5924  138.6013  166.1911 N.pl3   1  UNL1       -0.2136
      6 H         142.6989  137.8353  166.8004 H       1  UNL1        0.2924
      7 C         142.2432  141.1955  163.3733 C.ar    1  UNL1        0.0298
      8 C         143.4312  141.8534  162.7360 C.ar    1  UNL1        0.0025
      9 C         143.2532  143.1096  161.9359 C.ar    1  UNL1        0.0295
     10 C         141.8875  143.7080  161.7730 C.ar    1  UNL1        0.1401
     11 F         141.7096  144.9643  160.9729 F       1  UNL1       -0.2042
     12 C         140.6995  143.0503  162.4103 C.ar    1  UNL1        0.0295
     13 C         140.8774  141.7940  163.2104 C.ar    1  UNL1        0.0025
     14 C         142.5409  139.2867  162.8282 C.ar    1  UNL1        0.0298
     15 C         141.3158  139.0601  161.9928 C.ar    1  UNL1        0.0025
     16 C         141.4356  138.4074  160.6475 C.ar    1  UNL1        0.0295
     17 C         142.7805  137.9814  160.1378 C.ar    1  UNL1        0.1401
     18 F         142.9003  137.3287  158.7925 F       1  UNL1       -0.2042
     19 C         144.0054  138.2081  160.9732 C.ar    1  UNL1        0.0295
     20 C         143.8856  138.8608  162.3184 C.ar    1  UNL1        0.0025
     21 C         141.4469  142.3298  169.6965 C.ar    1  UNL1        0.0717
     22 C         142.0724  141.5575  170.8199 C.ar    1  UNL1        0.0310
     23 C         142.7971  140.2751  170.5362 C.ar    1  UNL1        0.0998
     24 N         142.8963  139.7652  169.1290 N.ar    1  UNL1       -0.2364
     25 C         142.2708  140.5376  168.0056 C.ar    1  UNL1        0.1633
     26 C         141.5461  141.8199  168.2893 C.ar    1  UNL1        0.0370
     27 N         139.9975  144.8945  170.2639 N.1     1  UNL1       -0.1908
     28 C         140.7222  143.6122  169.9802 C.1     1  UNL1        0.1005
@<TRIPOS>BOND
     1    27    28    3
     2    28    21    1
     3    21    22   ar
     4    22    23   ar
     5    23    24   ar
     6    24    25   ar
     7    25     1    1
     8     1     2    2
     9     2     3    1
    10     3     7    1
    11     7     8   ar
    12     8     9   ar
    13     9    10   ar
    14    10    11    1
    15    10    12   ar
    16    12    13   ar
    17     3    14    1
    18    14    15   ar
    19    15    16   ar
    20    16    17   ar
    21    17    18    1
    22    17    19   ar
    23    19    20   ar
    24     3     4    1
    25     4     5    1
    26    25    26   ar
    27    26    21   ar
    28     5     1    1
    29    13     7   ar
    30    20    14   ar
    31     5     6    1
@<TRIPOS>MOLECULE
*****
 28 31 0 0 0
SMALL
GASTEIGER

@<TRIPOS>ATOM
      1 C         142.6803  140.6588  166.1612 C.2     1  UNL1        0.3341
      2 N         142.2203  141.7588  165.2510 N.2     1  UNL1       -0.0599
      3 C         142.8255  141.5250  163.8986 C.3     1  UNL1        0.2542
      4 C         143.6595  140.2803  163.9729 C.3     1  UNL1        0.2573
      5 N         143.5697  139.7451  165.3713 N.pl3   1  UNL1       -0.2136
      6 H         144.0162  138.9361  165.7110 H       1  UNL1        0.2924
      7 C         142.0857  142.7752  163.5252 C.ar    1  UNL1        0.0298
      8 C         140.8442  142.6903  162.6876 C.ar    1  UNL1        0.0025
      9 C         140.1045  143.9406  162.3143 C.ar    1  UNL1        0.0295
     10 C         140.6061  145.2759  162.7784 C.ar    1  UNL1        0.1401
     11 F         139.8663  146.5262  162.4050 F       1  UNL1       -0.2042
     12 C         141.8476  145.3608  163.6160 C.ar    1  UNL1        0.0295
     13 C         142.5874  144.1105  163.9894 C.ar    1  UNL1        0.0025
     14 C         143.2760  141.5524  162.4681 C.ar    1  UNL1        0.0298
     15 C         142.6884  140.5908  161.4782 C.ar    1  UNL1        0.0025
     16 C         143.1389  140.6183  160.0476 C.ar    1  UNL1        0.0295
     17 C         144.1770  141.6074  159.6072 C.ar    1  UNL1        0.1401
     18 F         144.6275  141.6349  158.1766 F       1  UNL1       -0.2042
     19 C         144.7645  142.5689  160.5971 C.ar    1  UNL1        0.0295
     20 C         144.3140  142.5415  162.0276 C.ar    1  UNL1        0.0025
     21 C         141.0666  141.3555  169.7194 C.ar    1  UNL1        0.0717
     22 C         141.5841  140.1836  170.4997 C.ar    1  UNL1        0.0310
     23 C         142.4670  139.1702  169.8338 C.ar    1  UNL1        0.0998
     24 N         142.8324  139.3285  168.3877 N.ar    1  UNL1       -0.2364
     25 C         142.3149  140.5004  167.6074 C.ar    1  UNL1        0.1633
     26 C         141.4320  141.5139  168.2733 C.ar    1  UNL1        0.0370
     27 N         139.3008  143.3824  171.0511 N.1     1  UNL1       -0.1908
     28 C         140.1837  142.3690  170.3852 C.1     1  UNL1        0.1005
@<TRIPOS>BOND
     1    27    28    3
     2    28    21    1
     3    21    22   ar
     4    22    23   ar
     5    23    24   ar
     6    24    25   ar
     7    25     1    1
     8     1     2    2
     9     2     3    1
    10     3     7    1
    11     7     8   ar
    12     8     9   ar
    13     9    10   ar
    14    10    11    1
    15    10    12   ar
    16    12    13   ar
    17     3    14    1
    18    14    15   ar
    19    15    16   ar
    20    16    17   ar
    21    17    18    1
    22    17    19   ar
    23    19    20   ar
    24     3     4    1
    25     4     5    1
    26    25    26   ar
    27    26    21   ar
    28     5     1    1
    29    13     7   ar
    30    20    14   ar
    31     5     6    1
@<TRIPOS>MOLECULE
*****
 28 31 0 0 0
SMALL
GASTEIGER

@<TRIPOS>ATOM
      1 C         139.3970  142.4349  162.4001 C.2     1  UNL1        0.3341
      2 N         140.5032  141.7201  163.1180 N.2     1  UNL1       -0.0599
      3 C         140.0996  141.5653  164.5544 C.3     1  UNL1        0.2542
      4 C         138.7440  142.1846  164.7242 C.3     1  UNL1        0.2573
      5 N         138.3097  142.7220  163.3928 N.pl3   1  UNL1       -0.2136
      6 H         137.4603  143.1823  163.2037 H       1  UNL1        0.2924
      7 C         141.4289  140.8840  164.6908 C.ar    1  UNL1        0.0298
      8 C         141.4992  139.3886  164.7845 C.ar    1  UNL1        0.0025
      9 C         142.8286  138.7074  164.9209 C.ar    1  UNL1        0.0295
     10 C         144.0877  139.5214  164.9636 C.ar    1  UNL1        0.1401
     11 F         145.4171  138.8401  165.1000 F       1  UNL1       -0.2042
     12 C         144.0175  141.0168  164.8698 C.ar    1  UNL1        0.0295
     13 C         142.6881  141.6982  164.7335 C.ar    1  UNL1        0.0025
     14 C         139.9740  141.2682  166.0193 C.ar    1  UNL1        0.0298
     15 C         139.2269  140.0503  166.4761 C.ar    1  UNL1        0.0025
     16 C         139.1012  139.7531  167.9410 C.ar    1  UNL1        0.0295
     17 C         139.7226  140.6739  168.9490 C.ar    1  UNL1        0.1401
     18 F         139.5969  140.3767  170.4140 F       1  UNL1       -0.2042
     19 C         140.4697  141.8917  168.4922 C.ar    1  UNL1        0.0295
     20 C         140.5954  142.1888  167.0273 C.ar    1  UNL1        0.0025
     21 C         140.3662  144.1405  158.9502 C.ar    1  UNL1        0.0717
     22 C         139.3488  143.5265  158.0348 C.ar    1  UNL1        0.0310
     23 C         138.3475  142.5487  158.5745 C.ar    1  UNL1        0.0998
     24 N         138.3636  142.1848  160.0296 N.ar    1  UNL1       -0.2364
     25 C         139.3809  142.7988  160.9450 C.ar    1  UNL1        0.1633
     26 C         140.3822  143.7766  160.4053 C.ar    1  UNL1        0.0370
     27 N         142.3688  146.0961  157.8709 N.1     1  UNL1       -0.1908
     28 C         141.3675  145.1183  158.4106 C.1     1  UNL1        0.1005
@<TRIPOS>BOND
     1    27    28    3
     2    28    21    1
     3    21    22   ar
     4    22    23   ar
     5    23    24   ar
     6    24    25   ar
     7    25     1    1
     8     1     2    2
     9     2     3    1
    10     3     7    1
    11     7     8   ar
    12     8     9   ar
    13     9    10   ar
    14    10    11    1
    15    10    12   ar
    16    12    13   ar
    17     3    14    1
    18    14    15   ar
    19    15    16   ar
    20    16    17   ar
    21    17    18    1
    22    17    19   ar
    23    19    20   ar
    24     3     4    1
    25     4     5    1
    26    25    26   ar
    27    26    21   ar
    28     5     1    1
    29    13     7   ar
    30    20    14   ar
    31     5     6    1
@<TRIPOS>MOLECULE
*****
 28 31 0 0 0
SMALL
GASTEIGER

@<TRIPOS>ATOM
      1 C         142.5651  138.4345  159.1021 C.2     1  UNL1        0.3341
      2 N         141.9296  138.3371  160.4573 N.2     1  UNL1       -0.0599
      3 C         142.6182  139.3142  161.3635 C.3     1  UNL1        0.2542
      4 C         143.6794  140.0153  160.5683 C.3     1  UNL1        0.2573
      5 N         143.6466  139.4716  159.1707 N.pl3   1  UNL1       -0.2136
      6 H         144.2320  139.7471  158.4286 H       1  UNL1        0.2924
      7 C         141.6592  138.7946  162.3930 C.ar    1  UNL1        0.0298
      8 C         140.2098  139.1756  162.3279 C.ar    1  UNL1        0.0025
      9 C         139.2507  138.6560  163.3575 C.ar    1  UNL1        0.0295
     10 C         139.7409  137.7553  164.4523 C.ar    1  UNL1        0.1401
     11 F         138.7818  137.2357  165.4819 F       1  UNL1       -0.2042
     12 C         141.1902  137.3743  164.5175 C.ar    1  UNL1        0.0295
     13 C         142.1494  137.8939  163.4879 C.ar    1  UNL1        0.0025
     14 C         143.1064  140.1826  162.4849 C.ar    1  UNL1        0.0298
     15 C         144.4388  139.9113  163.1181 C.ar    1  UNL1        0.0025
     16 C         144.9271  140.7797  164.2396 C.ar    1  UNL1        0.0295
     17 C         144.0827  141.9193  164.7277 C.ar    1  UNL1        0.1401
     18 F         144.5709  142.7878  165.8492 F       1  UNL1       -0.2042
     19 C         142.7503  142.1906  164.0945 C.ar    1  UNL1        0.0295
     20 C         142.2621  141.3222  162.9731 C.ar    1  UNL1        0.0025
     21 C         140.4391  136.9839  156.0812 C.ar    1  UNL1        0.0717
     22 C         141.4270  136.0360  155.4686 C.ar    1  UNL1        0.0310
     23 C         142.7944  135.8875  156.0672 C.ar    1  UNL1        0.0998
     24 N         143.1738  136.6870  157.2783 N.ar    1  UNL1       -0.2364
     25 C         142.1858  137.6349  157.8909 C.ar    1  UNL1        0.1633
     26 C         140.8184  137.7834  157.2923 C.ar    1  UNL1        0.0370
     27 N         137.7043  137.2808  154.8840 N.1     1  UNL1       -0.1908
     28 C         139.0717  137.1324  155.4826 C.1     1  UNL1        0.1005
@<TRIPOS>BOND
     1    27    28    3
     2    28    21    1
     3    21    22   ar
     4    22    23   ar
     5    23    24   ar
     6    24    25   ar
     7    25     1    1
     8     1     2    2
     9     2     3    1
    10     3     7    1
    11     7     8   ar
    12     8     9   ar
    13     9    10   ar
    14    10    11    1
    15    10    12   ar
    16    12    13   ar
    17     3    14    1
    18    14    15   ar
    19    15    16   ar
    20    16    17   ar
    21    17    18    1
    22    17    19   ar
    23    19    20   ar
    24     3     4    1
    25     4     5    1
    26    25    26   ar
    27    26    21   ar
    28     5     1    1
    29    13     7   ar
    30    20    14   ar
    31     5     6    1
@<TRIPOS>MOLECULE
*****
 28 31 0 0 0
SMALL
GASTEIGER

@<TRIPOS>ATOM
      1 C         142.3895  139.9856  166.6591 C.2     1  UNL1        0.3341
      2 N         142.0229  140.7314  165.4103 N.2     1  UNL1       -0.0599
      3 C         142.2963  139.8360  164.2384 C.3     1  UNL1        0.2542
      4 C         142.8319  138.5367  164.7629 C.3     1  UNL1        0.2573
      5 N         142.8896  138.6292  166.2589 N.pl3   1  UNL1       -0.2136
      6 H         143.2009  137.9236  166.8708 H       1  UNL1        0.2924
      7 C         141.7960  140.9988  163.4338 C.ar    1  UNL1        0.0298
      8 C         140.3323  141.3272  163.4202 C.ar    1  UNL1        0.0025
      9 C         139.8321  142.4900  162.6156 C.ar    1  UNL1        0.0295
     10 C         140.7953  143.3246  161.8246 C.ar    1  UNL1        0.1401
     11 F         140.2949  144.4874  161.0200 F       1  UNL1       -0.2042
     12 C         142.2588  142.9963  161.8382 C.ar    1  UNL1        0.0295
     13 C         142.7592  141.8334  162.6428 C.ar    1  UNL1        0.0025
     14 C         142.4651  139.1837  162.8983 C.ar    1  UNL1        0.0298
     15 C         143.8402  138.9382  162.3516 C.ar    1  UNL1        0.0025
     16 C         144.0090  138.2858  161.0114 C.ar    1  UNL1        0.0295
     17 C         142.8027  137.8789  160.2181 C.ar    1  UNL1        0.1401
     18 F         142.9716  137.2265  158.8779 F       1  UNL1       -0.2042
     19 C         141.4277  138.1244  160.7649 C.ar    1  UNL1        0.0295
     20 C         141.2589  138.7768  162.1050 C.ar    1  UNL1        0.0025
     21 C         141.4422  142.3129  169.7309 C.ar    1  UNL1        0.0717
     22 C         142.0491  141.5440  170.8669 C.ar    1  UNL1        0.0310
     23 C         142.7695  140.2556  170.6002 C.ar    1  UNL1        0.0998
     24 N         142.8830  139.7362  169.1976 N.ar    1  UNL1       -0.2364
     25 C         142.2761  140.5051  168.0617 C.ar    1  UNL1        0.1633
     26 C         141.5557  141.7935  168.3284 C.ar    1  UNL1        0.0370
     27 N         140.0014  144.8897  170.2642 N.1     1  UNL1       -0.1908
     28 C         140.7218  143.6013  169.9976 C.1     1  UNL1        0.1005
@<TRIPOS>BOND
     1    27    28    3
     2    28    21    1
     3    21    22   ar
     4    22    23   ar
     5    23    24   ar
     6    24    25   ar
     7    25     1    1
     8     1     2    2
     9     2     3    1
    10     3     7    1
    11     7     8   ar
    12     8     9   ar
    13     9    10   ar
    14    10    11    1
    15    10    12   ar
    16    12    13   ar
    17     3    14    1
    18    14    15   ar
    19    15    16   ar
    20    16    17   ar
    21    17    18    1
    22    17    19   ar
    23    19    20   ar
    24     3     4    1
    25     4     5    1
    26    25    26   ar
    27    26    21   ar
    28     5     1    1
    29    13     7   ar
    30    20    14   ar
    31     5     6    1
