@<TRIPOS>MOLECULE
*****
 34 38 0 0 0
SMALL
GASTEIGER

@<TRIPOS>ATOM
      1 C         139.5497  142.5072  158.3821 C.3     1  UNL1        0.1531
      2 C         138.6686  142.3469  159.5854 C.3     1  UNL1        0.1067
      3 N         138.9188  141.2297  160.5546 N.3     1  UNL1       -0.2665
      4 C         138.0377  141.0693  161.7580 C.3     1  UNL1        0.0940
      5 C         138.2879  139.9522  162.7271 C.3     1  UNL1        0.1107
      6 N         139.4191  138.9954  162.4930 N.am    1  UNL1       -0.2764
      7 C         139.6693  137.8782  163.4623 C.2     1  UNL1        0.2302
      8 O         140.8005  136.9214  163.2282 O.2     1  UNL1       -0.2745
      9 C         140.3002  139.1557  161.2897 C.3     1  UNL1        0.1119
     10 C         140.0501  140.2729  160.3205 C.3     1  UNL1        0.1075
     11 C         140.9311  140.4333  159.1172 C.3     1  UNL1        0.1601
     12 O         140.6810  141.5504  158.1480 O.3     1  UNL1       -0.3489
     13 C         137.6469  142.1125  156.0966 C.3     1  UNL1        0.0316
     14 C         138.3482  143.4270  156.2702 C.ar    1  UNL1       -0.0117
     15 C         139.2996  143.6244  157.4129 C.ar    1  UNL1        0.0027
     16 C         140.0008  144.9390  157.5864 C.ar    1  UNL1        0.0001
     17 C         139.7507  146.0562  156.6173 C.ar    1  UNL1        0.0301
     18 C         138.7993  145.8588  155.4745 C.ar    1  UNL1        0.1493
     19 F         138.5492  146.9760  154.5053 F       1  UNL1       -0.2035
     20 C         138.0980  144.5442  155.3009 C.ar    1  UNL1        0.0916
     21 C         137.1467  144.3468  154.1582 C.1     1  UNL1        0.1024
     22 N         136.1953  144.1494  153.0155 N.1     1  UNL1       -0.1908
     23 C         138.7882  137.7178  164.6656 C.3     1  UNL1        0.1131
     24 C         139.0747  138.4981  165.9142 C.ar    1  UNL1        0.0062
     25 C         140.3885  139.2044  166.0724 C.ar    1  UNL1        0.0009
     26 C         140.6750  139.9847  167.3210 C.ar    1  UNL1        0.0386
     27 C         139.6477  140.0587  168.4115 C.ar    1  UNL1        0.1672
     28 N         138.3340  139.3524  168.2534 N.ar    1  UNL1       -0.2252
     29 C         138.0474  138.5721  167.0047 C.ar    1  UNL1        0.0968
     30 N         139.9342  140.8389  169.6601 N.ar    1  UNL1       -0.1708
     31 C         139.9065  142.3328  169.7921 C.ar    1  UNL1        0.2272
     32 N         140.2539  142.6795  171.2096 N.ar    1  UNL1       -0.1044
     33 N         140.4964  141.3997  171.9536 N.ar    1  UNL1       -0.0222
     34 N         140.2988  140.2622  170.9960 N.ar    1  UNL1       -0.0371
@<TRIPOS>BOND
     1    13    14    1
     2    14    15   ar
     3     1    15    1
     4     1     2    1
     5     2     3    1
     6     3     4    1
     7     4     5    1
     8     5     6    1
     9     6     7   am
    10     7     8    2
    11     7    23    1
    12    23    24    1
    13    24    25   ar
    14    25    26   ar
    15    26    27   ar
    16    27    30    1
    17    30    31   ar
    18    31    32   ar
    19    32    33   ar
    20    33    34   ar
    21    27    28   ar
    22    28    29   ar
    23     6     9    1
    24    10     9    1
    25    10    11    1
    26    11    12    1
    27    15    16   ar
    28    16    17   ar
    29    17    18   ar
    30    18    19    1
    31    18    20   ar
    32    20    21    1
    33    21    22    3
    34    20    14   ar
    35    12     1    1
    36    10     3    1
    37    29    24   ar
    38    34    30   ar
@<TRIPOS>MOLECULE
*****
 34 38 0 0 0
SMALL
GASTEIGER

@<TRIPOS>ATOM
      1 C         138.4456  141.0428  157.5520 C.3     1  UNL1        0.1531
      2 C         137.6723  140.9396  158.8331 C.3     1  UNL1        0.1067
      3 N         138.1953  140.0976  159.9590 N.3     1  UNL1       -0.2665
      4 C         137.4220  139.9943  161.2402 C.3     1  UNL1        0.0940
      5 C         137.9450  139.1524  162.3661 C.3     1  UNL1        0.1107
      6 N         139.2413  138.4138  162.2108 N.am    1  UNL1       -0.2764
      7 C         139.7642  137.5718  163.3368 C.2     1  UNL1        0.2302
      8 O         141.0605  136.8332  163.1815 O.2     1  UNL1       -0.2745
      9 C         140.0145  138.5171  160.9297 C.3     1  UNL1        0.1119
     10 C         139.4916  139.3590  159.8038 C.3     1  UNL1        0.1075
     11 C         140.2649  139.4623  158.5226 C.3     1  UNL1        0.1601
     12 O         139.7419  140.3042  157.3968 O.3     1  UNL1       -0.3489
     13 C         139.2425  143.9273  157.3404 C.3     1  UNL1        0.0316
     14 C         138.3211  143.3270  156.3203 C.ar    1  UNL1       -0.0117
     15 C         137.9226  141.8848  156.4261 C.ar    1  UNL1        0.0027
     16 C         137.0012  141.2845  155.4060 C.ar    1  UNL1        0.0001
     17 C         136.4783  142.1263  154.2801 C.ar    1  UNL1        0.0301
     18 C         136.8767  143.5686  154.1742 C.ar    1  UNL1        0.1493
     19 F         136.3537  144.4105  153.0483 F       1  UNL1       -0.2035
     20 C         137.7981  144.1690  155.1943 C.ar    1  UNL1        0.0916
     21 C         138.1966  145.6112  155.0885 C.1     1  UNL1        0.1024
     22 N         138.5950  147.0534  154.9827 N.1     1  UNL1       -0.1908
     23 C         138.9909  137.4685  164.6179 C.3     1  UNL1        0.1131
     24 C         139.2724  138.4203  165.7426 C.ar    1  UNL1        0.0062
     25 C         140.5396  139.2229  165.7466 C.ar    1  UNL1        0.0009
     26 C         140.8211  140.1746  166.8712 C.ar    1  UNL1        0.0386
     27 C         139.8353  140.3238  167.9920 C.ar    1  UNL1        0.1672
     28 N         138.5681  139.5212  167.9880 N.ar    1  UNL1       -0.2252
     29 C         138.2866  138.5694  166.8633 C.ar    1  UNL1        0.0968
     30 N         140.1167  141.2755  169.1166 N.ar    1  UNL1       -0.1708
     31 C         141.3160  142.1684  169.2368 C.ar    1  UNL1        0.2272
     32 N         141.1888  142.9463  170.5132 N.ar    1  UNL1       -0.1044
     33 N         139.9108  142.5341  171.1817 N.ar    1  UNL1       -0.0222
     34 N         139.2483  141.5015  170.3187 N.ar    1  UNL1       -0.0371
@<TRIPOS>BOND
     1    13    14    1
     2    14    15   ar
     3     1    15    1
     4     1     2    1
     5     2     3    1
     6     3     4    1
     7     4     5    1
     8     5     6    1
     9     6     7   am
    10     7     8    2
    11     7    23    1
    12    23    24    1
    13    24    25   ar
    14    25    26   ar
    15    26    27   ar
    16    27    30    1
    17    30    31   ar
    18    31    32   ar
    19    32    33   ar
    20    33    34   ar
    21    27    28   ar
    22    28    29   ar
    23     6     9    1
    24    10     9    1
    25    10    11    1
    26    11    12    1
    27    15    16   ar
    28    16    17   ar
    29    17    18   ar
    30    18    19    1
    31    18    20   ar
    32    20    21    1
    33    21    22    3
    34    20    14   ar
    35    12     1    1
    36    10     3    1
    37    29    24   ar
    38    34    30   ar
@<TRIPOS>MOLECULE
*****
 34 38 0 0 0
SMALL
GASTEIGER

@<TRIPOS>ATOM
      1 C         142.3101  142.3854  165.8280 C.3     1  UNL1        0.1531
      2 C         143.3296  141.6825  164.9816 C.3     1  UNL1        0.1067
      3 N         143.4543  142.0173  163.5248 N.3     1  UNL1       -0.2665
      4 C         144.4739  141.3144  162.6782 C.3     1  UNL1        0.0940
      5 C         144.5985  141.6491  161.2214 C.3     1  UNL1        0.1107
      6 N         143.7036  142.6867  160.6110 N.am    1  UNL1       -0.2764
      7 C         143.8283  143.0214  159.1541 C.2     1  UNL1        0.2302
      8 O         142.9333  144.0590  158.5437 O.2     1  UNL1       -0.2745
      9 C         142.6840  143.3895  161.4575 C.3     1  UNL1        0.1119
     10 C         142.5594  143.0548  162.9144 C.3     1  UNL1        0.1075
     11 C         141.5398  143.7577  163.7608 C.3     1  UNL1        0.1601
     12 O         141.4152  143.4229  165.2176 O.3     1  UNL1       -0.3489
     13 C         139.7957  141.1210  166.8668 C.3     1  UNL1        0.0316
     14 C         140.9282  141.4185  167.8043 C.ar    1  UNL1       -0.0117
     15 C         142.1854  142.0506  167.2849 C.ar    1  UNL1        0.0027
     16 C         143.3180  142.3481  168.2224 C.ar    1  UNL1        0.0001
     17 C         143.1933  142.0135  169.6792 C.ar    1  UNL1        0.0301
     18 C         141.9361  141.3812  170.1987 C.ar    1  UNL1        0.1493
     19 F         141.8115  141.0466  171.6555 F       1  UNL1       -0.2035
     20 C         140.8036  141.0837  169.2612 C.ar    1  UNL1        0.0916
     21 C         139.5464  140.4516  169.7806 C.1     1  UNL1        0.1024
     22 N         138.2892  139.8194  170.3000 N.1     1  UNL1       -0.1908
     23 C         144.8478  142.3186  158.3077 C.3     1  UNL1        0.1131
     24 C         144.4792  141.0598  157.5799 C.ar    1  UNL1        0.0062
     25 C         143.2889  140.2601  158.0201 C.ar    1  UNL1        0.0009
     26 C         142.9203  139.0014  157.2923 C.ar    1  UNL1        0.0386
     27 C         143.7420  138.5423  156.1244 C.ar    1  UNL1        0.1672
     28 N         144.9323  139.3419  155.6843 N.ar    1  UNL1       -0.2252
     29 C         145.3010  140.6007  156.4120 C.ar    1  UNL1        0.0968
     30 N         143.3735  137.2835  155.3967 N.ar    1  UNL1       -0.1708
     31 C         143.8005  135.8940  155.7665 C.ar    1  UNL1        0.2272
     32 N         143.2041  134.9449  154.7696 N.ar    1  UNL1       -0.1044
     33 N         142.4084  135.7480  153.7837 N.ar    1  UNL1       -0.0222
     34 N         142.5131  137.1933  154.1712 N.ar    1  UNL1       -0.0371
@<TRIPOS>BOND
     1    13    14    1
     2    14    15   ar
     3     1    15    1
     4     1     2    1
     5     2     3    1
     6     3     4    1
     7     4     5    1
     8     5     6    1
     9     6     7   am
    10     7     8    2
    11     7    23    1
    12    23    24    1
    13    24    25   ar
    14    25    26   ar
    15    26    27   ar
    16    27    30    1
    17    30    31   ar
    18    31    32   ar
    19    32    33   ar
    20    33    34   ar
    21    27    28   ar
    22    28    29   ar
    23     6     9    1
    24    10     9    1
    25    10    11    1
    26    11    12    1
    27    15    16   ar
    28    16    17   ar
    29    17    18   ar
    30    18    19    1
    31    18    20   ar
    32    20    21    1
    33    21    22    3
    34    20    14   ar
    35    12     1    1
    36    10     3    1
    37    29    24   ar
    38    34    30   ar
@<TRIPOS>MOLECULE
*****
 34 38 0 0 0
SMALL
GASTEIGER

@<TRIPOS>ATOM
      1 C         142.8503  140.2212  165.1991 C.3     1  UNL1        0.1531
      2 C         141.9465  139.4458  164.2871 C.3     1  UNL1        0.1067
      3 N         142.2650  139.3436  162.8249 N.3     1  UNL1       -0.2665
      4 C         141.3611  138.5682  161.9128 C.3     1  UNL1        0.0940
      5 C         141.6797  138.4660  160.4506 C.3     1  UNL1        0.1107
      6 N         142.9020  139.1391  159.9005 N.am    1  UNL1       -0.2764
      7 C         143.2205  139.0369  158.4382 C.2     1  UNL1        0.2302
      8 O         144.4429  139.7100  157.8880 O.2     1  UNL1       -0.2745
      9 C         143.8059  139.9145  160.8125 C.3     1  UNL1        0.1119
     10 C         143.4874  140.0167  162.2748 C.3     1  UNL1        0.1075
     11 C         144.3912  140.7921  163.1868 C.3     1  UNL1        0.1601
     12 O         144.0727  140.8943  164.6490 O.3     1  UNL1       -0.3489
     13 C         141.5050  142.6782  166.2732 C.3     1  UNL1        0.0316
     14 C         141.8592  141.5519  167.1984 C.ar    1  UNL1       -0.0117
     15 C         142.5318  140.3234  166.6614 C.ar    1  UNL1        0.0027
     16 C         142.8860  139.1971  167.5867 C.ar    1  UNL1        0.0001
     17 C         142.5675  139.2993  169.0489 C.ar    1  UNL1        0.0301
     18 C         141.8948  140.5278  169.5859 C.ar    1  UNL1        0.1493
     19 F         141.5764  140.6300  171.0481 F       1  UNL1       -0.2035
     20 C         141.5407  141.6541  168.6607 C.ar    1  UNL1        0.0916
     21 C         140.8681  142.8826  169.1976 C.1     1  UNL1        0.1024
     22 N         140.1954  144.1111  169.7346 N.1     1  UNL1       -0.1908
     23 C         142.3167  138.2615  157.5262 C.3     1  UNL1        0.1131
     24 C         142.7141  136.8910  157.0641 C.ar    1  UNL1        0.0062
     25 C         142.7876  136.5860  155.5972 C.ar    1  UNL1        0.0009
     26 C         143.1850  135.2154  155.1351 C.ar    1  UNL1        0.0386
     27 C         143.5091  134.1498  156.1398 C.ar    1  UNL1        0.1672
     28 N         143.4356  134.4547  157.6066 N.ar    1  UNL1       -0.2252
     29 C         143.0382  135.8253  158.0688 C.ar    1  UNL1        0.0968
     30 N         143.9065  132.7793  155.6777 N.ar    1  UNL1       -0.1708
     31 C         144.8991  131.8761  156.3479 C.ar    1  UNL1        0.2272
     32 N         144.9872  130.6098  155.5486 N.ar    1  UNL1       -0.1044
     33 N         144.0490  130.7304  154.3844 N.ar    1  UNL1       -0.0222
     34 N         143.3812  132.0711  154.4641 N.ar    1  UNL1       -0.0371
@<TRIPOS>BOND
     1    13    14    1
     2    14    15   ar
     3     1    15    1
     4     1     2    1
     5     2     3    1
     6     3     4    1
     7     4     5    1
     8     5     6    1
     9     6     7   am
    10     7     8    2
    11     7    23    1
    12    23    24    1
    13    24    25   ar
    14    25    26   ar
    15    26    27   ar
    16    27    30    1
    17    30    31   ar
    18    31    32   ar
    19    32    33   ar
    20    33    34   ar
    21    27    28   ar
    22    28    29   ar
    23     6     9    1
    24    10     9    1
    25    10    11    1
    26    11    12    1
    27    15    16   ar
    28    16    17   ar
    29    17    18   ar
    30    18    19    1
    31    18    20   ar
    32    20    21    1
    33    21    22    3
    34    20    14   ar
    35    12     1    1
    36    10     3    1
    37    29    24   ar
    38    34    30   ar
@<TRIPOS>MOLECULE
*****
 34 38 0 0 0
SMALL
GASTEIGER

@<TRIPOS>ATOM
      1 C         142.3996  140.5674  163.8967 C.3     1  UNL1        0.1531
      2 C         141.4470  139.8293  163.0037 C.3     1  UNL1        0.1067
      3 N         141.8279  139.5318  161.5837 N.3     1  UNL1       -0.2665
      4 C         140.8753  138.7936  160.6905 C.3     1  UNL1        0.0940
      5 C         141.2562  138.4961  159.2706 C.3     1  UNL1        0.1107
      6 N         142.5897  138.9368  158.7437 N.am    1  UNL1       -0.2764
      7 C         142.9705  138.6392  157.3236 C.2     1  UNL1        0.2302
      8 O         144.3041  139.0799  156.7967 O.2     1  UNL1       -0.2745
      9 C         143.5423  139.6749  159.6368 C.3     1  UNL1        0.1119
     10 C         143.1614  139.9725  161.0568 C.3     1  UNL1        0.1075
     11 C         144.1140  140.7106  161.9499 C.3     1  UNL1        0.1601
     12 O         143.7331  141.0081  163.3699 O.3     1  UNL1       -0.3489
     13 C         143.2899  138.7399  166.1030 C.3     1  UNL1        0.0316
     14 C         142.4639  139.9512  166.4199 C.ar    1  UNL1       -0.0117
     15 C         142.0187  140.8650  165.3168 C.ar    1  UNL1        0.0027
     16 C         141.1927  142.0763  165.6337 C.ar    1  UNL1        0.0001
     17 C         140.8118  142.3738  167.0536 C.ar    1  UNL1        0.0301
     18 C         141.2569  141.4601  168.1568 C.ar    1  UNL1        0.1493
     19 F         140.8761  141.7576  169.5768 F       1  UNL1       -0.2035
     20 C         142.0830  140.2488  167.8400 C.ar    1  UNL1        0.0916
     21 C         142.5281  139.3350  168.9430 C.1     1  UNL1        0.1024
     22 N         142.9733  138.4213  170.0461 N.1     1  UNL1       -0.1908
     23 C         142.0180  137.9011  156.4305 C.3     1  UNL1        0.1131
     24 C         142.0940  136.4068  156.3249 C.ar    1  UNL1        0.0062
     25 C         143.0745  135.6444  157.1660 C.ar    1  UNL1        0.0009
     26 C         143.1506  134.1501  157.0603 C.ar    1  UNL1        0.0386
     27 C         142.2462  133.4181  156.1136 C.ar    1  UNL1        0.1672
     28 N         141.2657  134.1804  155.2725 N.ar    1  UNL1       -0.2252
     29 C         141.1896  135.6748  155.3781 C.ar    1  UNL1        0.0968
     30 N         142.3223  131.9238  156.0079 N.ar    1  UNL1       -0.1708
     31 C         141.5504  131.0673  155.0484 C.ar    1  UNL1        0.2272
     32 N         141.9347  129.6376  155.2907 N.ar    1  UNL1       -0.1044
     33 N         142.9441  129.6106  156.4000 N.ar    1  UNL1       -0.0222
     34 N         143.1836  131.0235  156.8433 N.ar    1  UNL1       -0.0371
@<TRIPOS>BOND
     1    13    14    1
     2    14    15   ar
     3     1    15    1
     4     1     2    1
     5     2     3    1
     6     3     4    1
     7     4     5    1
     8     5     6    1
     9     6     7   am
    10     7     8    2
    11     7    23    1
    12    23    24    1
    13    24    25   ar
    14    25    26   ar
    15    26    27   ar
    16    27    30    1
    17    30    31   ar
    18    31    32   ar
    19    32    33   ar
    20    33    34   ar
    21    27    28   ar
    22    28    29   ar
    23     6     9    1
    24    10     9    1
    25    10    11    1
    26    11    12    1
    27    15    16   ar
    28    16    17   ar
    29    17    18   ar
    30    18    19    1
    31    18    20   ar
    32    20    21    1
    33    21    22    3
    34    20    14   ar
    35    12     1    1
    36    10     3    1
    37    29    24   ar
    38    34    30   ar
@<TRIPOS>MOLECULE
*****
 34 38 0 0 0
SMALL
GASTEIGER

@<TRIPOS>ATOM
      1 C         142.3914  140.9522  165.7508 C.3     1  UNL1        0.1531
      2 C         142.5600  142.0471  164.7396 C.3     1  UNL1        0.1067
      3 N         142.8836  141.7086  163.3146 N.3     1  UNL1       -0.2665
      4 C         143.0522  142.8036  162.3033 C.3     1  UNL1        0.0940
      5 C         143.3758  142.4651  160.8783 C.3     1  UNL1        0.1107
      6 N         143.5308  141.0316  160.4645 N.am    1  UNL1       -0.2764
      7 C         143.8545  140.6931  159.0395 C.2     1  UNL1        0.2302
      8 O         144.0095  139.2597  158.6257 O.2     1  UNL1       -0.2745
      9 C         143.3623  139.9367  161.4758 C.3     1  UNL1        0.1119
     10 C         143.0386  140.2751  162.9008 C.3     1  UNL1        0.1075
     11 C         142.8700  139.1802  163.9121 C.3     1  UNL1        0.1601
     12 O         142.5464  139.5187  165.3371 O.3     1  UNL1       -0.3489
     13 C         139.9185  139.8380  167.0328 C.3     1  UNL1        0.0316
     14 C         140.8313  140.7336  167.8169 C.ar    1  UNL1       -0.0117
     15 C         142.0677  141.2906  167.1759 C.ar    1  UNL1        0.0027
     16 C         142.9805  142.1862  167.9599 C.ar    1  UNL1        0.0001
     17 C         142.6570  142.5247  169.3849 C.ar    1  UNL1        0.0301
     18 C         141.4205  141.9676  170.0260 C.ar    1  UNL1        0.1493
     19 F         141.0969  142.3061  171.4510 F       1  UNL1       -0.2035
     20 C         140.5077  141.0720  169.2419 C.ar    1  UNL1        0.0916
     21 C         139.2713  140.5149  169.8829 C.1     1  UNL1        0.1024
     22 N         138.0349  139.9578  170.5239 N.1     1  UNL1       -0.1908
     23 C         144.0231  141.7881  158.0282 C.3     1  UNL1        0.1131
     24 C         145.2697  141.8556  157.1968 C.ar    1  UNL1        0.0062
     25 C         146.4004  142.7498  157.6117 C.ar    1  UNL1        0.0009
     26 C         147.6470  142.8173  156.7803 C.ar    1  UNL1        0.0386
     27 C         147.7630  141.9908  155.5340 C.ar    1  UNL1        0.1672
     28 N         146.6324  141.0967  155.1190 N.ar    1  UNL1       -0.2252
     29 C         145.3857  141.0291  155.9505 C.ar    1  UNL1        0.0968
     30 N         149.0097  142.0584  154.7025 N.ar    1  UNL1       -0.1708
     31 C         150.3219  141.4078  155.0265 C.ar    1  UNL1        0.2272
     32 N         151.2863  141.7358  153.9253 N.ar    1  UNL1       -0.1044
     33 N         150.5700  142.5890  152.9207 N.ar    1  UNL1       -0.0222
     34 N         149.1631  142.7884  153.4011 N.ar    1  UNL1       -0.0371
@<TRIPOS>BOND
     1    13    14    1
     2    14    15   ar
     3     1    15    1
     4     1     2    1
     5     2     3    1
     6     3     4    1
     7     4     5    1
     8     5     6    1
     9     6     7   am
    10     7     8    2
    11     7    23    1
    12    23    24    1
    13    24    25   ar
    14    25    26   ar
    15    26    27   ar
    16    27    30    1
    17    30    31   ar
    18    31    32   ar
    19    32    33   ar
    20    33    34   ar
    21    27    28   ar
    22    28    29   ar
    23     6     9    1
    24    10     9    1
    25    10    11    1
    26    11    12    1
    27    15    16   ar
    28    16    17   ar
    29    17    18   ar
    30    18    19    1
    31    18    20   ar
    32    20    21    1
    33    21    22    3
    34    20    14   ar
    35    12     1    1
    36    10     3    1
    37    29    24   ar
    38    34    30   ar
@<TRIPOS>MOLECULE
*****
 34 38 0 0 0
SMALL
GASTEIGER

@<TRIPOS>ATOM
      1 C         138.4021  141.6679  158.8394 C.3     1  UNL1        0.1531
      2 C         138.0322  142.1340  160.2163 C.3     1  UNL1        0.1067
      3 N         138.2485  141.2336  161.3962 N.3     1  UNL1       -0.2665
      4 C         137.8786  141.6997  162.7732 C.3     1  UNL1        0.0940
      5 C         138.0949  140.7992  163.9532 C.3     1  UNL1        0.1107
      6 N         138.6811  139.4326  163.7563 N.am    1  UNL1       -0.2764
      7 C         138.8974  138.5322  164.9363 C.2     1  UNL1        0.2302
      8 O         139.4837  137.1656  164.7394 O.2     1  UNL1       -0.2745
      9 C         139.0511  138.9665  162.3794 C.3     1  UNL1        0.1119
     10 C         138.8348  139.8670  161.1993 C.3     1  UNL1        0.1075
     11 C         139.2047  139.4008  159.8225 C.3     1  UNL1        0.1601
     12 O         138.9884  140.3013  158.6425 O.3     1  UNL1       -0.3489
     13 C         140.4315  143.7724  158.1665 C.3     1  UNL1        0.0316
     14 C         139.2005  143.6206  157.3229 C.ar    1  UNL1       -0.0117
     15 C         138.1858  142.5683  157.6594 C.ar    1  UNL1        0.0027
     16 C         136.9549  142.4165  156.8158 C.ar    1  UNL1        0.0001
     17 C         136.7385  143.3169  155.6358 C.ar    1  UNL1        0.0301
     18 C         137.7532  144.3692  155.2993 C.ar    1  UNL1        0.1493
     19 F         137.5369  145.2696  154.1193 F       1  UNL1       -0.2035
     20 C         138.9842  144.5210  156.1429 C.ar    1  UNL1        0.0916
     21 C         139.9989  145.5733  155.8064 C.1     1  UNL1        0.1024
     22 N         141.0135  146.6255  155.4700 N.1     1  UNL1       -0.1908
     23 C         138.5275  138.9983  166.3132 C.3     1  UNL1        0.1131
     24 C         139.4920  139.8271  167.1087 C.ar    1  UNL1        0.0062
     25 C         139.1982  140.1486  168.5442 C.ar    1  UNL1        0.0009
     26 C         140.1627  140.9774  169.3397 C.ar    1  UNL1        0.0386
     27 C         141.4209  141.4848  168.6998 C.ar    1  UNL1        0.1672
     28 N         141.7146  141.1634  167.2644 N.ar    1  UNL1       -0.2252
     29 C         140.7502  140.3346  166.4688 C.ar    1  UNL1        0.0968
     30 N         142.3853  142.3136  169.4953 N.ar    1  UNL1       -0.1708
     31 C         143.8797  142.2940  169.3666 C.ar    1  UNL1        0.2272
     32 N         144.4427  143.2759  170.3510 N.ar    1  UNL1       -0.1044
     33 N         143.2962  143.9024  171.0881 N.ar    1  UNL1       -0.0222
     34 N         142.0248  143.3077  170.5593 N.ar    1  UNL1       -0.0371
@<TRIPOS>BOND
     1    13    14    1
     2    14    15   ar
     3     1    15    1
     4     1     2    1
     5     2     3    1
     6     3     4    1
     7     4     5    1
     8     5     6    1
     9     6     7   am
    10     7     8    2
    11     7    23    1
    12    23    24    1
    13    24    25   ar
    14    25    26   ar
    15    26    27   ar
    16    27    30    1
    17    30    31   ar
    18    31    32   ar
    19    32    33   ar
    20    33    34   ar
    21    27    28   ar
    22    28    29   ar
    23     6     9    1
    24    10     9    1
    25    10    11    1
    26    11    12    1
    27    15    16   ar
    28    16    17   ar
    29    17    18   ar
    30    18    19    1
    31    18    20   ar
    32    20    21    1
    33    21    22    3
    34    20    14   ar
    35    12     1    1
    36    10     3    1
    37    29    24   ar
    38    34    30   ar
@<TRIPOS>MOLECULE
*****
 34 38 0 0 0
SMALL
GASTEIGER

@<TRIPOS>ATOM
      1 C         142.1392  137.5721  157.2213 C.3     1  UNL1        0.1531
      2 C         140.9245  137.6870  158.0939 C.3     1  UNL1        0.1067
      3 N         140.9217  138.6378  159.2540 N.3     1  UNL1       -0.2665
      4 C         139.7070  138.7527  160.1266 C.3     1  UNL1        0.0940
      5 C         139.7042  139.7034  161.2868 C.3     1  UNL1        0.1107
      6 N         140.9161  140.5394  161.5743 N.am    1  UNL1       -0.2764
      7 C         140.9132  141.4902  162.7346 C.2     1  UNL1        0.2302
      8 O         142.1250  142.3261  163.0221 O.2     1  UNL1       -0.2745
      9 C         142.1307  140.4245  160.7018 C.3     1  UNL1        0.1119
     10 C         142.1336  139.4737  159.5416 C.3     1  UNL1        0.1075
     11 C         143.3482  139.3588  158.6690 C.3     1  UNL1        0.1601
     12 O         143.3510  138.4080  157.5089 O.3     1  UNL1       -0.3489
     13 C         143.3470  134.8425  157.5218 C.3     1  UNL1        0.0316
     14 C         142.7460  135.2565  156.2114 C.ar    1  UNL1       -0.0117
     15 C         142.1421  136.6213  156.0611 C.ar    1  UNL1        0.0027
     16 C         141.5410  137.0353  154.7507 C.ar    1  UNL1        0.0001
     17 C         141.5438  136.0846  153.5905 C.ar    1  UNL1        0.0301
     18 C         142.1478  134.7198  153.7407 C.ar    1  UNL1        0.1493
     19 F         142.1506  133.7690  152.5805 F       1  UNL1       -0.2035
     20 C         142.7488  134.3057  155.0512 C.ar    1  UNL1        0.0916
     21 C         143.3527  132.9409  155.2014 C.1     1  UNL1        0.1024
     22 N         143.9567  131.5762  155.3517 N.1     1  UNL1       -0.1908
     23 C         139.6985  141.6050  163.6071 C.3     1  UNL1        0.1131
     24 C         139.8442  141.5982  165.1000 C.ar    1  UNL1        0.0062
     25 C         139.5396  140.3521  165.8776 C.ar    1  UNL1        0.0009
     26 C         139.6852  140.3453  167.3705 C.ar    1  UNL1        0.0386
     27 C         140.1355  141.5845  168.0858 C.ar    1  UNL1        0.1672
     28 N         140.4401  142.8305  167.3083 N.ar    1  UNL1       -0.2252
     29 C         140.2944  142.8374  165.8153 C.ar    1  UNL1        0.0968
     30 N         140.2811  141.5777  169.5787 N.ar    1  UNL1       -0.1708
     31 C         140.6709  140.3994  170.4211 C.ar    1  UNL1        0.2272
     32 N         140.6933  140.8415  171.8544 N.ar    1  UNL1       -0.1044
     33 N         140.3173  142.2930  171.8977 N.ar    1  UNL1       -0.0222
     34 N         140.0626  142.7480  170.4913 N.ar    1  UNL1       -0.0371
@<TRIPOS>BOND
     1    13    14    1
     2    14    15   ar
     3     1    15    1
     4     1     2    1
     5     2     3    1
     6     3     4    1
     7     4     5    1
     8     5     6    1
     9     6     7   am
    10     7     8    2
    11     7    23    1
    12    23    24    1
    13    24    25   ar
    14    25    26   ar
    15    26    27   ar
    16    27    30    1
    17    30    31   ar
    18    31    32   ar
    19    32    33   ar
    20    33    34   ar
    21    27    28   ar
    22    28    29   ar
    23     6     9    1
    24    10     9    1
    25    10    11    1
    26    11    12    1
    27    15    16   ar
    28    16    17   ar
    29    17    18   ar
    30    18    19    1
    31    18    20   ar
    32    20    21    1
    33    21    22    3
    34    20    14   ar
    35    12     1    1
    36    10     3    1
    37    29    24   ar
    38    34    30   ar
@<TRIPOS>MOLECULE
*****
 34 38 0 0 0
SMALL
GASTEIGER

@<TRIPOS>ATOM
      1 C         139.9715  140.5465  162.4672 C.3     1  UNL1        0.1531
      2 C         141.1888  139.9404  161.8344 C.3     1  UNL1        0.1067
      3 N         141.0782  139.2454  160.5097 N.3     1  UNL1       -0.2665
      4 C         142.2956  138.6392  159.8768 C.3     1  UNL1        0.0940
      5 C         142.1850  137.9443  158.5521 C.3     1  UNL1        0.1107
      6 N         140.8570  137.8555  157.8603 N.am    1  UNL1       -0.2764
      7 C         140.7464  137.1605  156.5356 C.2     1  UNL1        0.2302
      8 O         139.4184  137.0717  155.8438 O.2     1  UNL1       -0.2745
      9 C         139.6396  138.4617  158.4932 C.3     1  UNL1        0.1119
     10 C         139.7502  139.1566  159.8179 C.3     1  UNL1        0.1075
     11 C         138.5329  139.7628  160.4508 C.3     1  UNL1        0.1601
     12 O         138.6435  140.4577  161.7754 O.3     1  UNL1       -0.3489
     13 C         139.3422  139.0621  164.9972 C.3     1  UNL1        0.0316
     14 C         139.7674  140.4993  165.0569 C.ar    1  UNL1       -0.0117
     15 C         140.0821  141.2415  163.7920 C.ar    1  UNL1        0.0027
     16 C         140.5073  142.6787  163.8517 C.ar    1  UNL1        0.0001
     17 C         140.6179  143.3737  165.1763 C.ar    1  UNL1        0.0301
     18 C         140.3033  142.6315  166.4413 C.ar    1  UNL1        0.1493
     19 F         140.4139  143.3265  167.7660 F       1  UNL1       -0.2035
     20 C         139.8780  141.1943  166.3816 C.ar    1  UNL1        0.0916
     21 C         139.5634  140.4521  167.6465 C.1     1  UNL1        0.1024
     22 N         139.2487  139.7098  168.9114 N.1     1  UNL1       -0.1908
     23 C         141.9638  136.5543  155.9027 C.3     1  UNL1        0.1131
     24 C         142.3098  135.1187  156.1659 C.ar    1  UNL1        0.0062
     25 C         141.6236  134.0287  155.3969 C.ar    1  UNL1        0.0009
     26 C         141.9697  132.5932  155.6601 C.ar    1  UNL1        0.0386
     27 C         143.0018  132.2475  156.6921 C.ar    1  UNL1        0.1672
     28 N         143.6879  133.3374  157.4610 N.ar    1  UNL1       -0.2252
     29 C         143.3419  134.7731  157.1979 C.ar    1  UNL1        0.0968
     30 N         143.3479  130.8119  156.9553 N.ar    1  UNL1       -0.1708
     31 C         142.7576  129.6209  156.2600 C.ar    1  UNL1        0.2272
     32 N         143.3899  128.3881  156.8350 N.ar    1  UNL1       -0.1044
     33 N         144.3709  128.8172  157.8856 N.ar    1  UNL1       -0.0222
     34 N         144.3449  130.3151  157.9599 N.ar    1  UNL1       -0.0371
@<TRIPOS>BOND
     1    13    14    1
     2    14    15   ar
     3     1    15    1
     4     1     2    1
     5     2     3    1
     6     3     4    1
     7     4     5    1
     8     5     6    1
     9     6     7   am
    10     7     8    2
    11     7    23    1
    12    23    24    1
    13    24    25   ar
    14    25    26   ar
    15    26    27   ar
    16    27    30    1
    17    30    31   ar
    18    31    32   ar
    19    32    33   ar
    20    33    34   ar
    21    27    28   ar
    22    28    29   ar
    23     6     9    1
    24    10     9    1
    25    10    11    1
    26    11    12    1
    27    15    16   ar
    28    16    17   ar
    29    17    18   ar
    30    18    19    1
    31    18    20   ar
    32    20    21    1
    33    21    22    3
    34    20    14   ar
    35    12     1    1
    36    10     3    1
    37    29    24   ar
    38    34    30   ar
