@<TRIPOS>MOLECULE
*****
 31 34 0 0 0
SMALL
GASTEIGER

@<TRIPOS>ATOM
      1 N         140.7497  144.1678  159.9256 N.am    1  UNL1       -0.2744
      2 C         141.2321  142.7530  160.0514 C.3     1  UNL1        0.1152
      3 C         140.2237  144.8908  161.1299 C.2     1  UNL1        0.2668
      4 O         139.7414  146.3055  161.0040 O.2     1  UNL1       -0.2683
      5 C         139.9432  148.0259  154.2940 C.ar    1  UNL1       -0.0065
      6 C         138.9185  148.4255  155.3139 C.ar    1  UNL1       -0.0033
      7 C         138.8749  147.7339  156.6442 C.ar    1  UNL1       -0.0048
      8 C         139.8559  146.6425  156.9546 C.ar    1  UNL1       -0.0245
      9 C         140.8806  146.2428  155.9347 C.ar    1  UNL1       -0.0263
     10 C         140.9242  146.9345  154.6044 C.ar    1  UNL1       -0.0075
     11 C         141.8617  145.1514  156.2451 C.3     1  UNL1        0.0277
     12 C         141.8181  144.4597  157.5754 C.3     1  UNL1        0.0248
     13 C         140.7933  144.8594  158.5953 C.3     1  UNL1        0.0804
     14 C         139.8123  145.9508  158.2849 C.3     1  UNL1        0.0458
     15 C         139.9868  148.7176  152.9637 C.3     1  UNL1        0.0992
     16 C         139.2525  151.0022  151.9683 C.3     1  UNL1        0.0899
     17 N         140.1225  150.2100  152.8985 N.3     1  UNL1       -0.2665
     18 C         141.1284  150.9101  153.7634 C.3     1  UNL1        0.0899
     19 C         140.1801  144.1991  162.4602 C.ar    1  UNL1        0.1347
     20 C         141.3583  144.2772  163.3852 C.ar    1  UNL1        0.0238
     21 C         141.3147  143.5855  164.7154 C.ar    1  UNL1        0.0032
     22 C         140.0928  142.8157  165.1208 C.ar    1  UNL1        0.0192
     23 C         138.9146  142.7376  164.1959 C.ar    1  UNL1        0.0989
     24 N         138.9582  143.4293  162.8656 N.ar    1  UNL1       -0.2393
     25 C         140.0492  142.1240  166.4511 C.ar    1  UNL1        0.0016
     26 C         140.4408  142.8652  167.6950 C.ar    1  UNL1        0.0009
     27 C         140.3971  142.1735  169.0253 C.ar    1  UNL1        0.0114
     28 C         139.9619  140.7406  169.1117 C.ar    1  UNL1        0.0577
     29 CL        139.9183  140.0490  170.4419 Cl      1  UNL1       -0.0822
     30 C         139.5703  139.9995  167.8678 C.ar    1  UNL1        0.0114
     31 C         139.6139  140.6912  166.5375 C.ar    1  UNL1        0.0009
@<TRIPOS>BOND
     1    16    17    1
     2    17    18    1
     3    17    15    1
     4    15     5    1
     5     5     6   ar
     6     6     7   ar
     7     7     8   ar
     8     8     9   ar
     9     9    10   ar
    10     9    11    1
    11    11    12    1
    12    12    13    1
    13    13     1    1
    14     1     2    1
    15     1     3   am
    16     3     4    2
    17     3    19    1
    18    19    20   ar
    19    20    21   ar
    20    21    22   ar
    21    22    25    1
    22    25    26   ar
    23    26    27   ar
    24    27    28   ar
    25    28    29    1
    26    28    30   ar
    27    30    31   ar
    28    22    23   ar
    29    23    24   ar
    30    13    14    1
    31    10     5   ar
    32    24    19   ar
    33    14     8    1
    34    31    25   ar
@<TRIPOS>MOLECULE
*****
 31 34 0 0 0
SMALL
GASTEIGER

@<TRIPOS>ATOM
      1 N         143.5874  141.1884  160.2658 N.am    1  UNL1       -0.2744
      2 C         142.9327  142.4108  160.8379 C.3     1  UNL1        0.1152
      3 C         143.7366  139.9548  161.1059 C.2     1  UNL1        0.2668
      4 O         144.3913  138.7325  160.5338 O.2     1  UNL1       -0.2683
      5 C         146.8490  142.0036  154.2702 C.ar    1  UNL1       -0.0065
      6 C         147.5834  142.7620  155.3357 C.ar    1  UNL1       -0.0033
      7 C         147.0779  142.7507  156.7479 C.ar    1  UNL1       -0.0048
      8 C         145.8381  141.9809  157.0946 C.ar    1  UNL1       -0.0245
      9 C         145.1038  141.2224  156.0291 C.ar    1  UNL1       -0.0263
     10 C         145.6092  141.2337  154.6169 C.ar    1  UNL1       -0.0075
     11 C         143.8639  140.4525  156.3758 C.3     1  UNL1        0.0277
     12 C         143.3584  140.4412  157.7880 C.3     1  UNL1        0.0248
     13 C         144.0929  141.1998  158.8536 C.3     1  UNL1        0.0804
     14 C         145.3326  141.9696  158.5069 C.3     1  UNL1        0.0458
     15 C         147.3545  142.0149  152.8580 C.3     1  UNL1        0.0992
     16 C         149.5247  143.4260  152.6370 C.3     1  UNL1        0.0899
     17 N         148.8278  142.0985  152.5893 N.3     1  UNL1       -0.2665
     18 C         149.6044  140.8547  152.2730 C.3     1  UNL1        0.0899
     19 C         143.2312  139.9435  162.5181 C.ar    1  UNL1        0.1347
     20 C         144.1910  140.1040  163.6596 C.ar    1  UNL1        0.0238
     21 C         143.6855  140.0926  165.0718 C.ar    1  UNL1        0.0032
     22 C         142.2202  139.9208  165.3426 C.ar    1  UNL1        0.0192
     23 C         141.2604  139.7603  164.2012 C.ar    1  UNL1        0.0989
     24 N         141.7659  139.7716  162.7889 N.ar    1  UNL1       -0.2393
     25 C         141.7148  139.9095  166.7548 C.ar    1  UNL1        0.0016
     26 C         142.6399  139.5504  167.8796 C.ar    1  UNL1        0.0009
     27 C         142.1344  139.5391  169.2919 C.ar    1  UNL1        0.0114
     28 C         140.7039  139.8868  169.5793 C.ar    1  UNL1        0.0577
     29 CL        140.1984  139.8755  170.9915 Cl      1  UNL1       -0.0822
     30 C         139.7788  140.2459  168.4544 C.ar    1  UNL1        0.0114
     31 C         140.2843  140.2572  167.0422 C.ar    1  UNL1        0.0009
@<TRIPOS>BOND
     1    16    17    1
     2    17    18    1
     3    17    15    1
     4    15     5    1
     5     5     6   ar
     6     6     7   ar
     7     7     8   ar
     8     8     9   ar
     9     9    10   ar
    10     9    11    1
    11    11    12    1
    12    12    13    1
    13    13     1    1
    14     1     2    1
    15     1     3   am
    16     3     4    2
    17     3    19    1
    18    19    20   ar
    19    20    21   ar
    20    21    22   ar
    21    22    25    1
    22    25    26   ar
    23    26    27   ar
    24    27    28   ar
    25    28    29    1
    26    28    30   ar
    27    30    31   ar
    28    22    23   ar
    29    23    24   ar
    30    13    14    1
    31    10     5   ar
    32    24    19   ar
    33    14     8    1
    34    31    25   ar
@<TRIPOS>MOLECULE
*****
 31 34 0 0 0
SMALL
GASTEIGER

@<TRIPOS>ATOM
      1 N         141.1372  138.9840  160.4358 N.am    1  UNL1       -0.2744
      2 C         142.2214  139.9395  160.8382 C.3     1  UNL1        0.1152
      3 C         140.0692  138.6047  161.4183 C.2     1  UNL1        0.2668
      4 O         138.9851  137.6493  161.0159 O.2     1  UNL1       -0.2683
      5 C         142.2035  135.8094  154.4329 C.ar    1  UNL1       -0.0065
      6 C         143.3499  135.5152  155.3544 C.ar    1  UNL1       -0.0033
      7 C         143.3660  136.0913  156.7392 C.ar    1  UNL1       -0.0048
      8 C         142.2356  136.9616  157.2027 C.ar    1  UNL1       -0.0245
      9 C         141.0892  137.2558  156.2812 C.ar    1  UNL1       -0.0263
     10 C         141.0731  136.6797  154.8963 C.ar    1  UNL1       -0.0075
     11 C         139.9587  138.1261  156.7446 C.3     1  UNL1        0.0277
     12 C         139.9747  138.7022  158.1295 C.3     1  UNL1        0.0248
     13 C         141.1212  138.4079  159.0509 C.3     1  UNL1        0.0804
     14 C         142.2516  137.5376  158.5875 C.3     1  UNL1        0.0458
     15 C         142.1875  135.2333  153.0480 C.3     1  UNL1        0.0992
     16 C         142.2287  132.6595  153.3998 C.3     1  UNL1        0.0899
     17 N         141.5891  133.8794  152.8058 N.3     1  UNL1       -0.2665
     18 C         140.3510  133.7453  151.9696 C.3     1  UNL1        0.0899
     19 C         140.0852  139.1807  162.8032 C.ar    1  UNL1        0.1347
     20 C         140.6631  138.3887  163.9384 C.ar    1  UNL1        0.0238
     21 C         140.6791  138.9647  165.3232 C.ar    1  UNL1        0.0032
     22 C         140.1173  140.3329  165.5729 C.ar    1  UNL1        0.0192
     23 C         139.5394  141.1250  164.4378 C.ar    1  UNL1        0.0989
     24 N         139.5234  140.5489  163.0529 N.ar    1  UNL1       -0.2393
     25 C         140.1333  140.9090  166.9578 C.ar    1  UNL1        0.0016
     26 C         139.5861  140.1151  168.1068 C.ar    1  UNL1        0.0009
     27 C         139.6021  140.6911  169.4916 C.ar    1  UNL1        0.0114
     28 C         140.1654  142.0611  169.7276 C.ar    1  UNL1        0.0577
     29 CL        140.1814  142.6372  171.1124 Cl      1  UNL1       -0.0822
     30 C         140.7126  142.8551  168.5786 C.ar    1  UNL1        0.0114
     31 C         140.6966  142.2790  167.1937 C.ar    1  UNL1        0.0009
@<TRIPOS>BOND
     1    16    17    1
     2    17    18    1
     3    17    15    1
     4    15     5    1
     5     5     6   ar
     6     6     7   ar
     7     7     8   ar
     8     8     9   ar
     9     9    10   ar
    10     9    11    1
    11    11    12    1
    12    12    13    1
    13    13     1    1
    14     1     2    1
    15     1     3   am
    16     3     4    2
    17     3    19    1
    18    19    20   ar
    19    20    21   ar
    20    21    22   ar
    21    22    25    1
    22    25    26   ar
    23    26    27   ar
    24    27    28   ar
    25    28    29    1
    26    28    30   ar
    27    30    31   ar
    28    22    23   ar
    29    23    24   ar
    30    13    14    1
    31    10     5   ar
    32    24    19   ar
    33    14     8    1
    34    31    25   ar
@<TRIPOS>MOLECULE
*****
 31 34 0 0 0
SMALL
GASTEIGER

@<TRIPOS>ATOM
      1 N         141.4381  137.4159  157.2247 N.am    1  UNL1       -0.2744
      2 C         142.5987  137.8355  158.0774 C.3     1  UNL1        0.1152
      3 C         140.0753  137.9890  157.4782 C.2     1  UNL1        0.2668
      4 O         138.9148  137.5693  156.6255 O.2     1  UNL1       -0.2683
      5 C         142.8278  132.0952  153.1005 C.ar    1  UNL1       -0.0065
      6 C         143.2059  131.7378  154.5074 C.ar    1  UNL1       -0.0033
      7 C         143.0036  132.7305  155.6136 C.ar    1  UNL1       -0.0048
      8 C         142.4232  134.0805  155.3129 C.ar    1  UNL1       -0.0245
      9 C         142.0450  134.4379  153.9061 C.ar    1  UNL1       -0.0263
     10 C         142.2473  133.4452  152.7999 C.ar    1  UNL1       -0.0075
     11 C         141.4645  135.7880  153.6054 C.3     1  UNL1        0.0277
     12 C         141.2622  136.7807  154.7116 C.3     1  UNL1        0.0248
     13 C         141.6404  136.4232  156.1185 C.3     1  UNL1        0.0804
     14 C         142.2209  135.0732  156.4191 C.3     1  UNL1        0.0458
     15 C         143.0301  131.1025  151.9943 C.3     1  UNL1        0.0992
     16 C         140.8708  129.6588  152.0484 C.3     1  UNL1        0.0899
     17 N         142.3674  129.7586  152.0621 N.3     1  UNL1       -0.2665
     18 C         143.2013  128.5144  152.1436 C.3     1  UNL1        0.0899
     19 C         139.8730  138.9816  158.5844 C.ar    1  UNL1        0.1347
     20 C         139.9666  140.4513  158.2996 C.ar    1  UNL1        0.0238
     21 C         139.7643  141.4440  159.4058 C.ar    1  UNL1        0.0032
     22 C         139.4684  140.9670  160.7968 C.ar    1  UNL1        0.0192
     23 C         139.3747  139.4972  161.0815 C.ar    1  UNL1        0.0989
     24 N         139.5770  138.5046  159.9753 N.ar    1  UNL1       -0.2393
     25 C         139.2660  141.9596  161.9030 C.ar    1  UNL1        0.0016
     26 C         138.0110  142.7794  161.9548 C.ar    1  UNL1        0.0009
     27 C         137.8087  143.7721  163.0610 C.ar    1  UNL1        0.0114
     28 C         138.8614  143.9450  164.1154 C.ar    1  UNL1        0.0577
     29 CL        138.6591  144.9376  165.2216 Cl      1  UNL1       -0.0822
     30 C         140.1165  143.1252  164.0636 C.ar    1  UNL1        0.0114
     31 C         140.3188  142.1325  162.9574 C.ar    1  UNL1        0.0009
@<TRIPOS>BOND
     1    16    17    1
     2    17    18    1
     3    17    15    1
     4    15     5    1
     5     5     6   ar
     6     6     7   ar
     7     7     8   ar
     8     8     9   ar
     9     9    10   ar
    10     9    11    1
    11    11    12    1
    12    12    13    1
    13    13     1    1
    14     1     2    1
    15     1     3   am
    16     3     4    2
    17     3    19    1
    18    19    20   ar
    19    20    21   ar
    20    21    22   ar
    21    22    25    1
    22    25    26   ar
    23    26    27   ar
    24    27    28   ar
    25    28    29    1
    26    28    30   ar
    27    30    31   ar
    28    22    23   ar
    29    23    24   ar
    30    13    14    1
    31    10     5   ar
    32    24    19   ar
    33    14     8    1
    34    31    25   ar
@<TRIPOS>MOLECULE
*****
 31 34 0 0 0
SMALL
GASTEIGER

@<TRIPOS>ATOM
      1 N         140.7626  141.5977  155.9717 N.am    1  UNL1       -0.2744
      2 C         141.1147  142.3835  157.2001 C.3     1  UNL1        0.1152
      3 C         140.1921  142.2957  154.7729 C.2     1  UNL1        0.2668
      4 O         139.8401  141.5099  153.5447 O.2     1  UNL1       -0.2683
      5 C         143.0114  135.1118  155.6171 C.ar    1  UNL1       -0.0065
      6 C         144.1677  136.0444  155.4095 C.ar    1  UNL1       -0.0033
      7 C         143.9492  137.5282  155.4388 C.ar    1  UNL1       -0.0048
      8 C         142.5744  138.0792  155.6759 C.ar    1  UNL1       -0.0245
      9 C         141.4181  137.1466  155.8836 C.ar    1  UNL1       -0.0263
     10 C         141.6366  135.6629  155.8542 C.ar    1  UNL1       -0.0075
     11 C         140.0433  137.6977  156.1207 C.3     1  UNL1        0.0277
     12 C         139.8248  139.1814  156.1501 C.3     1  UNL1        0.0248
     13 C         140.9811  140.1140  155.9424 C.3     1  UNL1        0.0804
     14 C         142.3559  139.5629  155.7053 C.3     1  UNL1        0.0458
     15 C         143.2299  133.6281  155.5878 C.3     1  UNL1        0.0992
     16 C         144.9475  131.7908  156.2390 C.3     1  UNL1        0.0899
     17 N         144.1125  132.9795  156.6126 N.3     1  UNL1       -0.2665
     18 C         144.1600  133.5197  158.0113 C.3     1  UNL1        0.0899
     19 C         139.9736  143.7794  154.8023 C.ar    1  UNL1        0.1347
     20 C         138.6520  144.3342  155.2443 C.ar    1  UNL1        0.0238
     21 C         138.4335  145.8179  155.2737 C.ar    1  UNL1        0.0032
     22 C         139.5366  146.7468  154.8610 C.ar    1  UNL1        0.0192
     23 C         140.8582  146.1920  154.4190 C.ar    1  UNL1        0.0989
     24 N         141.0767  144.7083  154.3896 N.ar    1  UNL1       -0.2393
     25 C         139.3181  148.2305  154.8904 C.ar    1  UNL1        0.0016
     26 C         139.8388  149.0875  153.7750 C.ar    1  UNL1        0.0009
     27 C         139.6203  150.5712  153.8043 C.ar    1  UNL1        0.0114
     28 C         138.8810  151.1979  154.9492 C.ar    1  UNL1        0.0577
     29 CL        138.6625  152.6816  154.9786 Cl      1  UNL1       -0.0822
     30 C         138.3603  150.3409  156.0647 C.ar    1  UNL1        0.0114
     31 C         138.5788  148.8572  156.0353 C.ar    1  UNL1        0.0009
@<TRIPOS>BOND
     1    16    17    1
     2    17    18    1
     3    17    15    1
     4    15     5    1
     5     5     6   ar
     6     6     7   ar
     7     7     8   ar
     8     8     9   ar
     9     9    10   ar
    10     9    11    1
    11    11    12    1
    12    12    13    1
    13    13     1    1
    14     1     2    1
    15     1     3   am
    16     3     4    2
    17     3    19    1
    18    19    20   ar
    19    20    21   ar
    20    21    22   ar
    21    22    25    1
    22    25    26   ar
    23    26    27   ar
    24    27    28   ar
    25    28    29    1
    26    28    30   ar
    27    30    31   ar
    28    22    23   ar
    29    23    24   ar
    30    13    14    1
    31    10     5   ar
    32    24    19   ar
    33    14     8    1
    34    31    25   ar
@<TRIPOS>MOLECULE
*****
 31 34 0 0 0
SMALL
GASTEIGER

@<TRIPOS>ATOM
      1 N         143.4864  141.8137  160.7113 N.am    1  UNL1       -0.2744
      2 C         143.6193  140.4624  161.3489 C.3     1  UNL1        0.1152
      3 C         143.0622  142.9932  161.5352 C.2     1  UNL1        0.2668
      4 O         142.9293  144.3444  160.8976 O.2     1  UNL1       -0.2683
      5 C         146.0620  142.7117  154.4019 C.ar    1  UNL1       -0.0065
      6 C         147.1814  142.7516  155.3994 C.ar    1  UNL1       -0.0033
      7 C         146.8902  142.5799  156.8608 C.ar    1  UNL1       -0.0048
      8 C         145.4795  142.3684  157.3247 C.ar    1  UNL1       -0.0245
      9 C         144.3601  142.3286  156.3271 C.ar    1  UNL1       -0.0263
     10 C         144.6513  142.5003  154.8657 C.ar    1  UNL1       -0.0075
     11 C         142.9493  142.1171  156.7909 C.3     1  UNL1        0.0277
     12 C         142.6581  141.9455  158.2523 C.3     1  UNL1        0.0248
     13 C         143.7776  141.9853  159.2499 C.3     1  UNL1        0.0804
     14 C         145.1883  142.1968  158.7861 C.3     1  UNL1        0.0458
     15 C         146.3532  142.8834  152.9405 C.3     1  UNL1        0.0992
     16 C         147.6121  140.8282  151.9702 C.3     1  UNL1        0.0899
     17 N         147.5915  142.2801  152.3465 N.3     1  UNL1       -0.2665
     18 C         148.8091  143.1287  152.1289 C.3     1  UNL1        0.0899
     19 C         142.7710  142.8216  162.9966 C.ar    1  UNL1        0.1347
     20 C         143.8650  143.0061  164.0061 C.ar    1  UNL1        0.0238
     21 C         143.5737  142.8344  165.4675 C.ar    1  UNL1        0.0032
     22 C         142.1885  142.4782  165.9194 C.ar    1  UNL1        0.0192
     23 C         141.0946  142.2937  164.9099 C.ar    1  UNL1        0.0989
     24 N         141.3858  142.4654  163.4485 N.ar    1  UNL1       -0.2393
     25 C         141.8973  142.3066  167.3808 C.ar    1  UNL1        0.0016
     26 C         142.9866  141.8741  168.3169 C.ar    1  UNL1        0.0009
     27 C         142.6954  141.7025  169.7783 C.ar    1  UNL1        0.0114
     28 C         141.3148  141.9633  170.3036 C.ar    1  UNL1        0.0577
     29 CL        141.0236  141.7916  171.7650 Cl      1  UNL1       -0.0822
     30 C         140.2255  142.3958  169.3675 C.ar    1  UNL1        0.0114
     31 C         140.5168  142.5674  167.9061 C.ar    1  UNL1        0.0009
@<TRIPOS>BOND
     1    16    17    1
     2    17    18    1
     3    17    15    1
     4    15     5    1
     5     5     6   ar
     6     6     7   ar
     7     7     8   ar
     8     8     9   ar
     9     9    10   ar
    10     9    11    1
    11    11    12    1
    12    12    13    1
    13    13     1    1
    14     1     2    1
    15     1     3   am
    16     3     4    2
    17     3    19    1
    18    19    20   ar
    19    20    21   ar
    20    21    22   ar
    21    22    25    1
    22    25    26   ar
    23    26    27   ar
    24    27    28   ar
    25    28    29    1
    26    28    30   ar
    27    30    31   ar
    28    22    23   ar
    29    23    24   ar
    30    13    14    1
    31    10     5   ar
    32    24    19   ar
    33    14     8    1
    34    31    25   ar
@<TRIPOS>MOLECULE
*****
 31 34 0 0 0
SMALL
GASTEIGER

@<TRIPOS>ATOM
      1 N         144.1596  141.6564  159.1502 N.am    1  UNL1       -0.2744
      2 C         143.7920  142.7469  160.1125 C.3     1  UNL1        0.1152
      3 C         143.6087  140.2739  159.3373 C.2     1  UNL1        0.2668
      4 O         143.9764  139.1835  158.3751 O.2     1  UNL1       -0.2683
      5 C         147.4432  142.4262  153.1606 C.ar    1  UNL1       -0.0065
      6 C         146.1343  141.7350  152.9177 C.ar    1  UNL1       -0.0033
      7 C         145.2158  141.4429  154.0671 C.ar    1  UNL1       -0.0048
      8 C         145.6062  141.8418  155.4593 C.ar    1  UNL1       -0.0245
      9 C         146.9151  142.5329  155.7022 C.ar    1  UNL1       -0.0263
     10 C         147.8336  142.8251  154.5528 C.ar    1  UNL1       -0.0075
     11 C         147.3056  142.9319  157.0945 C.3     1  UNL1        0.0277
     12 C         146.3871  142.6398  158.2438 C.3     1  UNL1        0.0248
     13 C         145.0781  141.9486  158.0009 C.3     1  UNL1        0.0804
     14 C         144.6877  141.5496  156.6086 C.3     1  UNL1        0.0458
     15 C         148.3617  142.7183  152.0113 C.3     1  UNL1        0.0992
     16 C         150.3514  141.0482  151.9678 C.3     1  UNL1        0.0899
     17 N         149.8312  142.4449  152.1372 N.3     1  UNL1       -0.2665
     18 C         150.7805  143.5681  152.4327 C.3     1  UNL1        0.0899
     19 C         142.6902  139.9817  160.4867 C.ar    1  UNL1        0.1347
     20 C         141.2270  140.2919  160.3750 C.ar    1  UNL1        0.0238
     21 C         140.3085  139.9997  161.5243 C.ar    1  UNL1        0.0032
     22 C         140.8532  139.3974  162.7854 C.ar    1  UNL1        0.0192
     23 C         142.3165  139.0872  162.8971 C.ar    1  UNL1        0.0989
     24 N         143.2350  139.3794  161.7478 N.ar    1  UNL1       -0.2393
     25 C         139.9347  139.1052  163.9347 C.ar    1  UNL1        0.0016
     26 C         139.2287  140.2283  164.6348 C.ar    1  UNL1        0.0009
     27 C         138.3102  139.9361  165.7841 C.ar    1  UNL1        0.0114
     28 C         138.0977  138.5209  166.2334 C.ar    1  UNL1        0.0577
     29 CL        137.1792  138.2287  167.3828 Cl      1  UNL1       -0.0822
     30 C         138.8038  137.3978  165.5334 C.ar    1  UNL1        0.0114
     31 C         139.7223  137.6900  164.3840 C.ar    1  UNL1        0.0009
@<TRIPOS>BOND
     1    16    17    1
     2    17    18    1
     3    17    15    1
     4    15     5    1
     5     5     6   ar
     6     6     7   ar
     7     7     8   ar
     8     8     9   ar
     9     9    10   ar
    10     9    11    1
    11    11    12    1
    12    12    13    1
    13    13     1    1
    14     1     2    1
    15     1     3   am
    16     3     4    2
    17     3    19    1
    18    19    20   ar
    19    20    21   ar
    20    21    22   ar
    21    22    25    1
    22    25    26   ar
    23    26    27   ar
    24    27    28   ar
    25    28    29    1
    26    28    30   ar
    27    30    31   ar
    28    22    23   ar
    29    23    24   ar
    30    13    14    1
    31    10     5   ar
    32    24    19   ar
    33    14     8    1
    34    31    25   ar
@<TRIPOS>MOLECULE
*****
 31 34 0 0 0
SMALL
GASTEIGER

@<TRIPOS>ATOM
      1 N         143.1708  140.7401  162.2532 N.am    1  UNL1       -0.2744
      2 C         144.4848  140.0187  162.1970 C.3     1  UNL1        0.1152
      3 C         142.6643  141.4711  161.0453 C.2     1  UNL1        0.2668
      4 O         141.3504  142.1925  161.1015 O.2     1  UNL1       -0.2683
      5 C         140.3460  141.5679  168.4649 C.ar    1  UNL1       -0.0065
      6 C         141.5585  142.4441  168.3562 C.ar    1  UNL1       -0.0033
      7 C         142.3660  142.4538  167.0921 C.ar    1  UNL1       -0.0048
      8 C         141.9609  141.5873  165.9367 C.ar    1  UNL1       -0.0245
      9 C         140.7484  140.7110  166.0454 C.ar    1  UNL1       -0.0263
     10 C         139.9409  140.7013  167.3095 C.ar    1  UNL1       -0.0075
     11 C         140.3432  139.8444  164.8900 C.3     1  UNL1        0.0277
     12 C         141.1507  139.8541  163.6260 C.3     1  UNL1        0.0248
     13 C         142.3633  140.7304  163.5173 C.3     1  UNL1        0.0804
     14 C         142.7684  141.5969  164.6726 C.3     1  UNL1        0.0458
     15 C         139.5385  141.5582  169.7290 C.3     1  UNL1        0.0992
     16 C         140.2936  139.5177  171.1489 C.3     1  UNL1        0.0899
     17 N         139.2210  140.2580  170.4062 N.3     1  UNL1       -0.2665
     18 C         137.8310  139.6981  170.3407 C.3     1  UNL1        0.0899
     19 C         143.4718  141.4808  159.7812 C.ar    1  UNL1        0.1347
     20 C         143.2660  140.4096  158.7516 C.ar    1  UNL1        0.0238
     21 C         144.0735  140.4193  157.4875 C.ar    1  UNL1        0.0032
     22 C         145.0867  141.5002  157.2531 C.ar    1  UNL1        0.0192
     23 C         145.2924  142.5714  158.2827 C.ar    1  UNL1        0.0989
     24 N         144.4850  142.5617  159.5468 N.ar    1  UNL1       -0.2393
     25 C         145.8942  141.5099  155.9890 C.ar    1  UNL1        0.0016
     26 C         147.2611  142.1273  155.9769 C.ar    1  UNL1        0.0009
     27 C         148.0685  142.1370  154.7128 C.ar    1  UNL1        0.0114
     28 C         147.5091  141.5293  153.4608 C.ar    1  UNL1        0.0577
     29 CL        148.3165  141.5389  152.1967 Cl      1  UNL1       -0.0822
     30 C         146.1421  140.9118  153.4729 C.ar    1  UNL1        0.0114
     31 C         145.3347  140.9021  154.7370 C.ar    1  UNL1        0.0009
@<TRIPOS>BOND
     1    16    17    1
     2    17    18    1
     3    17    15    1
     4    15     5    1
     5     5     6   ar
     6     6     7   ar
     7     7     8   ar
     8     8     9   ar
     9     9    10   ar
    10     9    11    1
    11    11    12    1
    12    12    13    1
    13    13     1    1
    14     1     2    1
    15     1     3   am
    16     3     4    2
    17     3    19    1
    18    19    20   ar
    19    20    21   ar
    20    21    22   ar
    21    22    25    1
    22    25    26   ar
    23    26    27   ar
    24    27    28   ar
    25    28    29    1
    26    28    30   ar
    27    30    31   ar
    28    22    23   ar
    29    23    24   ar
    30    13    14    1
    31    10     5   ar
    32    24    19   ar
    33    14     8    1
    34    31    25   ar
@<TRIPOS>MOLECULE
*****
 31 34 0 0 0
SMALL
GASTEIGER

@<TRIPOS>ATOM
      1 N         141.7236  137.3839  155.6627 N.am    1  UNL1       -0.2744
      2 C         142.6062  138.2065  154.7714 C.3     1  UNL1        0.1152
      3 C         140.6040  138.0362  156.4184 C.2     1  UNL1        0.2668
      4 O         139.7215  137.2136  157.3096 O.2     1  UNL1       -0.2683
      5 C         143.7651  130.9793  157.0994 C.ar    1  UNL1       -0.0065
      6 C         144.6215  131.9495  157.8579 C.ar    1  UNL1       -0.0033
      7 C         144.3845  133.4244  157.7223 C.ar    1  UNL1       -0.0048
      8 C         143.2911  133.9292  156.8281 C.ar    1  UNL1       -0.0245
      9 C         142.4347  132.9591  156.0696 C.ar    1  UNL1       -0.0263
     10 C         142.6717  131.4841  156.2052 C.ar    1  UNL1       -0.0075
     11 C         141.3412  133.4639  155.1754 C.3     1  UNL1        0.0277
     12 C         141.1041  134.9388  155.0398 C.3     1  UNL1        0.0248
     13 C         141.9606  135.9089  155.7984 C.3     1  UNL1        0.0804
     14 C         143.0540  135.4041  156.6925 C.3     1  UNL1        0.0458
     15 C         144.0021  129.5044  157.2350 C.3     1  UNL1        0.0992
     16 C         142.9682  128.5645  159.4253 C.3     1  UNL1        0.0899
     17 N         144.1728  128.8941  158.5945 N.3     1  UNL1       -0.2665
     18 C         145.5482  128.6133  159.1233 C.3     1  UNL1        0.0899
     19 C         140.3670  139.5111  156.2828 C.ar    1  UNL1        0.1347
     20 C         139.3656  140.0216  155.2895 C.ar    1  UNL1        0.0238
     21 C         139.1286  141.4965  155.1539 C.ar    1  UNL1        0.0032
     22 C         139.8929  142.4610  156.0115 C.ar    1  UNL1        0.0192
     23 C         140.8943  141.9505  157.0048 C.ar    1  UNL1        0.0989
     24 N         141.1313  140.4756  157.1404 N.ar    1  UNL1       -0.2393
     25 C         139.6559  143.9359  155.8759 C.ar    1  UNL1        0.0016
     26 C         138.3851  144.4375  155.2567 C.ar    1  UNL1        0.0009
     27 C         138.1481  145.9124  155.1211 C.ar    1  UNL1        0.0114
     28 C         139.1819  146.8858  155.6046 C.ar    1  UNL1        0.0577
     29 CL        138.9448  148.3607  155.4690 Cl      1  UNL1       -0.0822
     30 C         140.4526  146.3842  156.2239 C.ar    1  UNL1        0.0114
     31 C         140.6897  144.9093  156.3595 C.ar    1  UNL1        0.0009
@<TRIPOS>BOND
     1    16    17    1
     2    17    18    1
     3    17    15    1
     4    15     5    1
     5     5     6   ar
     6     6     7   ar
     7     7     8   ar
     8     8     9   ar
     9     9    10   ar
    10     9    11    1
    11    11    12    1
    12    12    13    1
    13    13     1    1
    14     1     2    1
    15     1     3   am
    16     3     4    2
    17     3    19    1
    18    19    20   ar
    19    20    21   ar
    20    21    22   ar
    21    22    25    1
    22    25    26   ar
    23    26    27   ar
    24    27    28   ar
    25    28    29    1
    26    28    30   ar
    27    30    31   ar
    28    22    23   ar
    29    23    24   ar
    30    13    14    1
    31    10     5   ar
    32    24    19   ar
    33    14     8    1
    34    31    25   ar
