@<TRIPOS>MOLECULE
*****
 29 34 0 0 0
SMALL
GASTEIGER

@<TRIPOS>ATOM
      1 O         143.6440  142.2580  166.5501 O.2     1  UNL1       -0.2443
      2 C         143.5567  141.7825  165.1302 C.ar    1  UNL1        0.3532
      3 N         143.2701  140.3393  164.8388 N.ar    1  UNL1       -0.2702
      4 C         143.1829  139.8637  163.4190 C.ar    1  UNL1        0.0965
      5 S         142.9160  138.5110  162.8280 S.2     1  UNL1       -0.0728
      6 C         142.9504  138.6427  161.3343 C.ar    1  UNL1        0.0210
      7 C         143.2385  140.0769  161.0019 C.ar    1  UNL1       -0.0126
      8 C         143.3822  140.8314  162.2903 C.ar    1  UNL1        0.0545
      9 C         143.6687  142.2747  162.5816 C.ar    1  UNL1        0.1717
     10 N         143.9085  143.4516  161.6830 N.ar    1  UNL1       -0.2032
     11 C         144.1440  144.6545  162.5477 C.ar    1  UNL1        0.2214
     12 N         144.0498  144.2210  163.9806 N.ar    1  UNL1       -0.1372
     13 N         143.7560  142.7502  164.0016 N.ar    1  UNL1       -0.1606
     14 C         143.3328  140.5103  159.5690 C.3     1  UNL1        0.0441
     15 C         143.1389  139.5097  158.4684 C.3     1  UNL1        0.0772
     16 N         142.8508  138.0757  158.8008 N.3     1  UNL1       -0.2652
     17 C         142.7565  137.6421  160.2336 C.3     1  UNL1        0.1055
     18 C         142.6570  137.0751  157.7002 C.3     1  UNL1        0.1175
     19 C         141.7198  136.9469  156.5361 C.3     1  UNL1        0.1606
     20 O         142.3830  135.6600  156.1438 O.3     1  UNL1       -0.3507
     21 C         143.3203  135.7881  157.3078 C.3     1  UNL1        0.1606
     22 C         143.0708  139.3715  165.9675 C.3     1  UNL1        0.1378
     23 C         141.9736  139.5982  166.9648 C.ar    1  UNL1        0.0006
     24 C         142.2824  139.5991  168.4327 C.ar    1  UNL1       -0.0015
     25 C         141.1851  139.8258  169.4300 C.ar    1  UNL1        0.0111
     26 C         139.7789  140.0517  168.9593 C.ar    1  UNL1        0.0577
     27 CL        138.6816  140.2784  169.9566 Cl      1  UNL1       -0.0822
     28 C         139.4700  140.0508  167.4915 C.ar    1  UNL1        0.0111
     29 C         140.5673  139.8241  166.4942 C.ar    1  UNL1       -0.0015
@<TRIPOS>BOND
     1     1     2    2
     2     2     3   ar
     3     3    22    1
     4    22    23    1
     5    23    24   ar
     6    24    25   ar
     7    25    26   ar
     8    26    27    1
     9    26    28   ar
    10    28    29   ar
    11     3     4   ar
    12     4     5   ar
    13     5     6   ar
    14     6     7   ar
    15     7     8   ar
    16     8     9   ar
    17     9    10   ar
    18    10    11   ar
    19    11    12   ar
    20    12    13   ar
    21     7    14    1
    22    14    15    1
    23    15    16    1
    24    16    18    1
    25    18    19    1
    26    19    20    1
    27    20    21    1
    28    16    17    1
    29    13     2   ar
    30    21    18    1
    31    29    23   ar
    32     8     4   ar
    33    13     9   ar
    34    17     6    1
@<TRIPOS>MOLECULE
*****
 29 34 0 0 0
SMALL
GASTEIGER

@<TRIPOS>ATOM
      1 O         140.1563  143.2611  166.5348 O.2     1  UNL1       -0.2443
      2 C         140.6650  143.1633  165.1271 C.ar    1  UNL1        0.3532
      3 N         142.1338  143.0008  164.8700 N.ar    1  UNL1       -0.2702
      4 C         142.6425  142.9030  163.4624 C.ar    1  UNL1        0.0965
      5 S         144.0252  142.7400  162.9038 S.2     1  UNL1       -0.0728
      6 C         143.9196  142.7040  161.4081 C.ar    1  UNL1        0.0210
      7 C         142.4716  142.8448  161.0421 C.ar    1  UNL1       -0.0126
      8 C         141.6824  142.9677  162.3117 C.ar    1  UNL1        0.0545
      9 C         140.2136  143.1303  162.5687 C.ar    1  UNL1        0.1717
     10 N         139.0371  143.2249  161.6430 N.ar    1  UNL1       -0.2032
     11 C         137.8013  143.3812  162.4786 C.ar    1  UNL1        0.2214
     12 N         138.2140  143.3831  163.9208 N.ar    1  UNL1       -0.1372
     13 N         139.7049  143.2281  163.9765 N.ar    1  UNL1       -0.1606
     14 C         142.0590  142.8428  159.5999 C.3     1  UNL1        0.0441
     15 C         143.0941  142.7000  158.5238 C.3     1  UNL1        0.0772
     16 N         144.5420  142.5593  158.8898 N.3     1  UNL1       -0.2652
     17 C         144.9547  142.5613  160.3318 C.3     1  UNL1        0.1055
     18 C         145.5771  142.4166  157.8136 C.3     1  UNL1        0.1175
     19 C         145.6590  141.6751  156.5122 C.3     1  UNL1        0.1606
     20 O         147.0411  142.2148  156.2917 O.3     1  UNL1       -0.3507
     21 C         146.9593  142.9562  157.5931 C.3     1  UNL1        0.1606
     22 C         143.0939  142.9360  166.0208 C.3     1  UNL1        0.1378
     23 C         142.9684  141.8442  167.0416 C.ar    1  UNL1        0.0006
     24 C         142.7374  140.4288  166.6017 C.ar    1  UNL1       -0.0015
     25 C         142.6119  139.3370  167.6225 C.ar    1  UNL1        0.0111
     26 C         142.7173  139.6606  169.0835 C.ar    1  UNL1        0.0577
     27 CL        142.5918  138.5687  170.1043 Cl      1  UNL1       -0.0822
     28 C         142.9482  141.0758  169.5235 C.ar    1  UNL1        0.0111
     29 C         143.0738  142.1677  168.5025 C.ar    1  UNL1       -0.0015
@<TRIPOS>BOND
     1     1     2    2
     2     2     3   ar
     3     3    22    1
     4    22    23    1
     5    23    24   ar
     6    24    25   ar
     7    25    26   ar
     8    26    27    1
     9    26    28   ar
    10    28    29   ar
    11     3     4   ar
    12     4     5   ar
    13     5     6   ar
    14     6     7   ar
    15     7     8   ar
    16     8     9   ar
    17     9    10   ar
    18    10    11   ar
    19    11    12   ar
    20    12    13   ar
    21     7    14    1
    22    14    15    1
    23    15    16    1
    24    16    18    1
    25    18    19    1
    26    19    20    1
    27    20    21    1
    28    16    17    1
    29    13     2   ar
    30    21    18    1
    31    29    23   ar
    32     8     4   ar
    33    13     9   ar
    34    17     6    1
@<TRIPOS>MOLECULE
*****
 29 34 0 0 0
SMALL
GASTEIGER

@<TRIPOS>ATOM
      1 O         143.6806  140.8482  165.4396 O.2     1  UNL1       -0.2443
      2 C         142.9266  141.3117  164.2286 C.ar    1  UNL1        0.3532
      3 N         141.9204  140.4078  163.5801 N.ar    1  UNL1       -0.2702
      4 C         141.1663  140.8713  162.3692 C.ar    1  UNL1        0.0965
      5 S         140.1218  140.2069  161.5219 S.2     1  UNL1       -0.0728
      6 C         139.7285  141.1637  160.4358 C.ar    1  UNL1        0.0210
      7 C         140.5299  142.4196  160.6117 C.ar    1  UNL1       -0.0126
      8 C         141.4185  142.2388  161.8065 C.ar    1  UNL1        0.0545
      9 C         142.4247  143.1427  162.4550 C.ar    1  UNL1        0.1717
     10 N         142.8826  144.5331  162.1279 N.ar    1  UNL1       -0.2032
     11 C         143.9197  144.9289  163.1367 C.ar    1  UNL1        0.2214
     12 N         144.1027  143.7831  164.0873 N.ar    1  UNL1       -0.1372
     13 N         143.1787  142.6792  163.6660 N.ar    1  UNL1       -0.1606
     14 C         140.3468  143.5654  159.6611 C.3     1  UNL1        0.0441
     15 C         139.3625  143.4554  158.5346 C.3     1  UNL1        0.0772
     16 N         138.5611  142.1997  158.3588 N.3     1  UNL1       -0.2652
     17 C         138.7441  141.0538  159.3093 C.3     1  UNL1        0.1055
     18 C         137.5767  142.0898  157.2323 C.3     1  UNL1        0.1175
     19 C         136.7093  140.9954  156.6846 C.3     1  UNL1        0.1606
     20 O         136.1847  141.9345  155.6391 O.3     1  UNL1       -0.3507
     21 C         137.0521  143.0288  156.1868 C.3     1  UNL1        0.1606
     22 C         141.6682  139.0403  164.1428 C.3     1  UNL1        0.1378
     23 C         140.4640  138.7934  165.0023 C.ar    1  UNL1        0.0006
     24 C         140.1577  139.7136  166.1466 C.ar    1  UNL1       -0.0015
     25 C         138.9534  139.4667  167.0061 C.ar    1  UNL1        0.0111
     26 C         138.0554  138.2994  166.7212 C.ar    1  UNL1        0.0577
     27 CL        136.8511  138.0524  167.5807 Cl      1  UNL1       -0.0822
     28 C         138.3616  137.3792  165.5770 C.ar    1  UNL1        0.0111
     29 C         139.5659  137.6262  164.7175 C.ar    1  UNL1       -0.0015
@<TRIPOS>BOND
     1     1     2    2
     2     2     3   ar
     3     3    22    1
     4    22    23    1
     5    23    24   ar
     6    24    25   ar
     7    25    26   ar
     8    26    27    1
     9    26    28   ar
    10    28    29   ar
    11     3     4   ar
    12     4     5   ar
    13     5     6   ar
    14     6     7   ar
    15     7     8   ar
    16     8     9   ar
    17     9    10   ar
    18    10    11   ar
    19    11    12   ar
    20    12    13   ar
    21     7    14    1
    22    14    15    1
    23    15    16    1
    24    16    18    1
    25    18    19    1
    26    19    20    1
    27    20    21    1
    28    16    17    1
    29    13     2   ar
    30    21    18    1
    31    29    23   ar
    32     8     4   ar
    33    13     9   ar
    34    17     6    1
@<TRIPOS>MOLECULE
*****
 29 34 0 0 0
SMALL
GASTEIGER

@<TRIPOS>ATOM
      1 O         138.9567  140.1558  166.4081 O.2     1  UNL1       -0.2443
      2 C         139.1319  140.6147  164.9908 C.ar    1  UNL1        0.3532
      3 N         139.4720  142.0469  164.7028 N.ar    1  UNL1       -0.2702
      4 C         139.6471  142.5058  163.2856 C.ar    1  UNL1        0.0965
      5 S         139.9810  143.8451  162.6981 S.2     1  UNL1       -0.0728
      6 C         140.0225  143.6994  161.2058 C.ar    1  UNL1        0.0210
      7 C         139.7142  142.2700  160.8709 C.ar    1  UNL1       -0.0126
      8 C         139.4823  141.5324  162.1562 C.ar    1  UNL1        0.0545
      9 C         139.1422  140.1001  162.4442 C.ar    1  UNL1        0.1717
     10 N         138.9191  138.9210  161.5443 N.ar    1  UNL1       -0.2032
     11 C         138.6060  137.7334  162.4054 C.ar    1  UNL1        0.2214
     12 N         138.6356  138.1785  163.8375 N.ar    1  UNL1       -0.1372
     13 N         138.9670  139.6413  163.8615 N.ar    1  UNL1       -0.1606
     14 C         139.6846  141.8249  159.4387 C.3     1  UNL1        0.0441
     15 C         139.9632  142.8090  158.3416 C.3     1  UNL1        0.0772
     16 N         140.2714  144.2383  158.6765 N.3     1  UNL1       -0.2652
     17 C         140.3011  144.6835  160.1085 C.3     1  UNL1        0.1055
     18 C         140.5501  145.2224  157.5792 C.3     1  UNL1        0.1175
     19 C         141.7839  145.8665  157.0202 C.3     1  UNL1        0.1606
     20 O         140.9439  146.6142  156.0274 O.3     1  UNL1       -0.3507
     21 C         139.7100  145.9700  156.5864 C.3     1  UNL1        0.1606
     22 C         139.6368  143.0203  165.8322 C.3     1  UNL1        0.1378
     23 C         140.7286  142.8204  166.8412 C.ar    1  UNL1        0.0006
     24 C         140.4411  142.9984  168.3026 C.ar    1  UNL1       -0.0015
     25 C         141.5328  142.7985  169.3116 C.ar    1  UNL1        0.0111
     26 C         142.9122  142.4205  168.8591 C.ar    1  UNL1        0.0577
     27 CL        144.0039  142.2205  169.8681 Cl      1  UNL1       -0.0822
     28 C         143.1997  142.2424  167.3978 C.ar    1  UNL1        0.0111
     29 C         142.1079  142.4424  166.3888 C.ar    1  UNL1       -0.0015
@<TRIPOS>BOND
     1     1     2    2
     2     2     3   ar
     3     3    22    1
     4    22    23    1
     5    23    24   ar
     6    24    25   ar
     7    25    26   ar
     8    26    27    1
     9    26    28   ar
    10    28    29   ar
    11     3     4   ar
    12     4     5   ar
    13     5     6   ar
    14     6     7   ar
    15     7     8   ar
    16     8     9   ar
    17     9    10   ar
    18    10    11   ar
    19    11    12   ar
    20    12    13   ar
    21     7    14    1
    22    14    15    1
    23    15    16    1
    24    16    18    1
    25    18    19    1
    26    19    20    1
    27    20    21    1
    28    16    17    1
    29    13     2   ar
    30    21    18    1
    31    29    23   ar
    32     8     4   ar
    33    13     9   ar
    34    17     6    1
@<TRIPOS>MOLECULE
*****
 29 34 0 0 0
SMALL
GASTEIGER

@<TRIPOS>ATOM
      1 O         138.8332  142.7623  158.8577 O.2     1  UNL1       -0.2443
      2 C         139.0681  142.7344  160.3389 C.ar    1  UNL1        0.3532
      3 N         138.9607  141.4411  161.0911 N.ar    1  UNL1       -0.2702
      4 C         139.1957  141.4132  162.5722 C.ar    1  UNL1        0.0965
      5 S         139.1599  140.2966  163.5734 S.2     1  UNL1       -0.0728
      6 C         139.4801  140.8720  164.9210 C.ar    1  UNL1        0.0210
      7 C         139.7138  142.3442  164.7530 C.ar    1  UNL1       -0.0126
      8 C         139.5380  142.6786  163.3014 C.ar    1  UNL1        0.0545
      9 C         139.6454  143.9719  162.5492 C.ar    1  UNL1        0.1717
     10 N         139.9650  145.3683  162.9942 N.ar    1  UNL1       -0.2032
     11 C         139.9276  146.2592  161.7881 C.ar    1  UNL1        0.2214
     12 N         139.5849  145.4135  160.5975 N.ar    1  UNL1       -0.1372
     13 N         139.4105  143.9998  161.0679 N.ar    1  UNL1       -0.1606
     14 C         140.0565  143.1899  165.9435 C.3     1  UNL1        0.0441
     15 C         140.1655  142.5635  167.3021 C.3     1  UNL1        0.0772
     16 N         139.9318  141.0914  167.4701 N.3     1  UNL1       -0.2652
     17 C         139.5891  140.2456  166.2797 C.3     1  UNL1        0.1055
     18 C         140.0409  140.4650  168.8288 C.3     1  UNL1        0.1175
     19 C         141.1280  139.7668  169.5907 C.3     1  UNL1        0.1606
     20 O         140.1949  139.5793  170.7502 O.3     1  UNL1       -0.3507
     21 C         139.1078  140.2775  169.9883 C.3     1  UNL1        0.1606
     22 C         138.6184  140.1757  160.3620 C.3     1  UNL1        0.1378
     23 C         139.6799  139.4379  159.6012 C.ar    1  UNL1        0.0006
     24 C         139.4696  139.1021  158.1544 C.ar    1  UNL1       -0.0015
     25 C         140.5311  138.3643  157.3937 C.ar    1  UNL1        0.0111
     26 C         141.8031  137.9622  158.0798 C.ar    1  UNL1        0.0577
     27 CL        142.8646  137.2243  157.3190 Cl      1  UNL1       -0.0822
     28 C         142.0134  138.2979  159.5264 C.ar    1  UNL1        0.0111
     29 C         140.9518  139.0358  160.2872 C.ar    1  UNL1       -0.0015
@<TRIPOS>BOND
     1     1     2    2
     2     2     3   ar
     3     3    22    1
     4    22    23    1
     5    23    24   ar
     6    24    25   ar
     7    25    26   ar
     8    26    27    1
     9    26    28   ar
    10    28    29   ar
    11     3     4   ar
    12     4     5   ar
    13     5     6   ar
    14     6     7   ar
    15     7     8   ar
    16     8     9   ar
    17     9    10   ar
    18    10    11   ar
    19    11    12   ar
    20    12    13   ar
    21     7    14    1
    22    14    15    1
    23    15    16    1
    24    16    18    1
    25    18    19    1
    26    19    20    1
    27    20    21    1
    28    16    17    1
    29    13     2   ar
    30    21    18    1
    31    29    23   ar
    32     8     4   ar
    33    13     9   ar
    34    17     6    1
@<TRIPOS>MOLECULE
*****
 29 34 0 0 0
SMALL
GASTEIGER

@<TRIPOS>ATOM
      1 O         143.1197  143.6956  159.2735 O.2     1  UNL1       -0.2443
      2 C         142.5705  143.4716  160.6513 C.ar    1  UNL1        0.3532
      3 N         143.0493  142.3093  161.4697 N.ar    1  UNL1       -0.2702
      4 C         142.5002  142.0852  162.8473 C.ar    1  UNL1        0.0965
      5 S         142.7791  141.0339  163.8804 S.2     1  UNL1       -0.0728
      6 C         141.9237  141.3225  165.0782 C.ar    1  UNL1        0.0210
      7 C         141.1159  142.5522  164.7855 C.ar    1  UNL1       -0.0126
      8 C         141.4722  143.0235  163.4068 C.ar    1  UNL1        0.0545
      9 C         140.9935  144.1859  162.5885 C.ar    1  UNL1        0.1717
     10 N         139.9965  145.2701  162.8721 N.ar    1  UNL1       -0.2032
     11 C         139.9294  146.1642  161.6696 C.ar    1  UNL1        0.2214
     12 N         140.8850  145.6326  160.6428 N.ar    1  UNL1       -0.1372
     13 N         141.5426  144.4099  161.2107 N.ar    1  UNL1       -0.1606
     14 C         140.1604  143.0838  165.8123 C.3     1  UNL1        0.0441
     15 C         140.0125  142.3858  167.1318 C.3     1  UNL1        0.0772
     16 N         140.8202  141.1562  167.4244 N.3     1  UNL1       -0.2652
     17 C         141.7758  140.6245  166.3977 C.3     1  UNL1        0.1055
     18 C         140.6723  140.4582  168.7439 C.3     1  UNL1        0.1175
     19 C         139.5717  140.3209  169.7538 C.3     1  UNL1        0.1606
     20 O         140.4633  139.4711  170.6099 O.3     1  UNL1       -0.3507
     21 C         141.5639  139.6084  169.6001 C.3     1  UNL1        0.1606
     22 C         144.0772  141.3709  160.9102 C.3     1  UNL1        0.1378
     23 C         143.6548  140.2406  160.0192 C.ar    1  UNL1        0.0006
     24 C         143.3035  138.9086  160.6129 C.ar    1  UNL1       -0.0015
     25 C         142.8811  137.7782  159.7219 C.ar    1  UNL1        0.0111
     26 C         142.8100  137.9798  158.2372 C.ar    1  UNL1        0.0577
     27 CL        142.3876  136.8494  157.3462 Cl      1  UNL1       -0.0822
     28 C         143.1613  139.3117  157.6435 C.ar    1  UNL1        0.0111
     29 C         143.5837  140.4421  158.5345 C.ar    1  UNL1       -0.0015
@<TRIPOS>BOND
     1     1     2    2
     2     2     3   ar
     3     3    22    1
     4    22    23    1
     5    23    24   ar
     6    24    25   ar
     7    25    26   ar
     8    26    27    1
     9    26    28   ar
    10    28    29   ar
    11     3     4   ar
    12     4     5   ar
    13     5     6   ar
    14     6     7   ar
    15     7     8   ar
    16     8     9   ar
    17     9    10   ar
    18    10    11   ar
    19    11    12   ar
    20    12    13   ar
    21     7    14    1
    22    14    15    1
    23    15    16    1
    24    16    18    1
    25    18    19    1
    26    19    20    1
    27    20    21    1
    28    16    17    1
    29    13     2   ar
    30    21    18    1
    31    29    23   ar
    32     8     4   ar
    33    13     9   ar
    34    17     6    1
@<TRIPOS>MOLECULE
*****
 29 34 0 0 0
SMALL
GASTEIGER

@<TRIPOS>ATOM
      1 O         140.9431  142.8742  164.7134 O.2     1  UNL1       -0.2443
      2 C         141.1740  142.2387  163.3744 C.ar    1  UNL1        0.3532
      3 N         141.5831  140.7982  163.2883 N.ar    1  UNL1       -0.2702
      4 C         141.8139  140.1627  161.9494 C.ar    1  UNL1        0.0965
      5 S         142.2204  138.7739  161.5541 S.2     1  UNL1       -0.0728
      6 C         142.2934  138.7208  160.0569 C.ar    1  UNL1        0.0210
      7 C         141.9320  140.0767  159.5267 C.ar    1  UNL1       -0.0126
      8 C         141.6357  140.9679  160.6963 C.ar    1  UNL1        0.0545
      9 C         141.2267  142.4084  160.7824 C.ar    1  UNL1        0.1717
     10 N         140.9755  143.4451  159.7278 N.ar    1  UNL1       -0.2032
     11 C         140.5895  144.7213  160.4150 C.ar    1  UNL1        0.2214
     12 N         140.6020  144.4733  161.8943 N.ar    1  UNL1       -0.1372
     13 N         140.9958  143.0439  162.1214 N.ar    1  UNL1       -0.1606
     14 C         141.9195  140.3247  158.0474 C.3     1  UNL1        0.0441
     15 C         142.2684  139.2168  157.0983 C.3     1  UNL1        0.0772
     16 N         142.6297  137.8610  157.6284 N.3     1  UNL1       -0.2652
     17 C         142.6422  137.6129  159.1077 C.3     1  UNL1        0.1055
     18 C         142.9785  136.7531  156.6792 C.3     1  UNL1        0.1175
     19 C         144.0986  136.4955  155.7153 C.3     1  UNL1        0.1606
     20 O         143.4717  135.1863  155.3368 O.3     1  UNL1       -0.3507
     21 C         142.3516  135.4439  156.3007 C.3     1  UNL1        0.1606
     22 C         141.7613  139.9930  164.5414 C.3     1  UNL1        0.1378
     23 C         140.5645  139.4206  165.2415 C.ar    1  UNL1        0.0006
     24 C         139.8865  138.2005  164.6921 C.ar    1  UNL1       -0.0015
     25 C         138.6898  137.6280  165.3921 C.ar    1  UNL1        0.0111
     26 C         138.1711  138.2757  166.6418 C.ar    1  UNL1        0.0577
     27 CL        136.9744  137.7032  167.3419 Cl      1  UNL1       -0.0822
     28 C         138.8490  139.4956  167.1913 C.ar    1  UNL1        0.0111
     29 C         140.0458  140.0681  166.4911 C.ar    1  UNL1       -0.0015
@<TRIPOS>BOND
     1     1     2    2
     2     2     3   ar
     3     3    22    1
     4    22    23    1
     5    23    24   ar
     6    24    25   ar
     7    25    26   ar
     8    26    27    1
     9    26    28   ar
    10    28    29   ar
    11     3     4   ar
    12     4     5   ar
    13     5     6   ar
    14     6     7   ar
    15     7     8   ar
    16     8     9   ar
    17     9    10   ar
    18    10    11   ar
    19    11    12   ar
    20    12    13   ar
    21     7    14    1
    22    14    15    1
    23    15    16    1
    24    16    18    1
    25    18    19    1
    26    19    20    1
    27    20    21    1
    28    16    17    1
    29    13     2   ar
    30    21    18    1
    31    29    23   ar
    32     8     4   ar
    33    13     9   ar
    34    17     6    1
@<TRIPOS>MOLECULE
*****
 29 34 0 0 0
SMALL
GASTEIGER

@<TRIPOS>ATOM
      1 O         137.6879  143.7165  163.8785 O.2     1  UNL1       -0.2443
      2 C         138.5137  143.1303  162.7720 C.ar    1  UNL1        0.3532
      3 N         138.6498  141.6418  162.6454 N.ar    1  UNL1       -0.2702
      4 C         139.4756  141.0556  161.5390 C.ar    1  UNL1        0.0965
      5 S         139.7906  139.6376  161.1646 S.2     1  UNL1       -0.0728
      6 C         140.6751  139.6634  159.9535 C.ar    1  UNL1        0.0210
      7 C         140.9069  141.0975  159.5793 C.ar    1  UNL1       -0.0126
      8 C         140.1655  141.9579  160.5591 C.ar    1  UNL1        0.0545
      9 C         140.0295  143.4463  160.6858 C.ar    1  UNL1        0.1717
     10 N         140.5889  144.5778  159.8754 N.ar    1  UNL1       -0.2032
     11 C         140.1087  145.8633  160.4810 C.ar    1  UNL1        0.2214
     12 N         139.2526  145.5263  161.6657 N.ar    1  UNL1       -0.1372
     13 N         139.2036  144.0325  161.7922 N.ar    1  UNL1       -0.1606
     14 C         141.7630  141.4345  158.3946 C.3     1  UNL1        0.0441
     15 C         142.3874  140.3375  157.5841 C.3     1  UNL1        0.0772
     16 N         142.1557  138.9036  157.9584 N.3     1  UNL1       -0.2652
     17 C         141.2996  138.5665  159.1430 C.3     1  UNL1        0.1055
     18 C         142.7801  137.8066  157.1479 C.3     1  UNL1        0.1175
     19 C         142.8599  136.3136  157.2670 C.3     1  UNL1        0.1606
     20 O         143.6633  136.2555  156.0016 O.3     1  UNL1       -0.3507
     21 C         143.5835  137.7486  155.8824 C.3     1  UNL1        0.1606
     22 C         137.9598  140.7396  163.6253 C.3     1  UNL1        0.1378
     23 C         138.5432  140.5302  164.9912 C.ar    1  UNL1        0.0006
     24 C         138.0292  139.4244  165.8649 C.ar    1  UNL1       -0.0015
     25 C         138.6126  139.2150  167.2308 C.ar    1  UNL1        0.0111
     26 C         139.7101  140.1113  167.7231 C.ar    1  UNL1        0.0577
     27 CL        140.2935  139.9019  169.0890 Cl      1  UNL1       -0.0822
     28 C         140.2241  141.2170  166.8495 C.ar    1  UNL1        0.0111
     29 C         139.6406  141.4264  165.4835 C.ar    1  UNL1       -0.0015
@<TRIPOS>BOND
     1     1     2    2
     2     2     3   ar
     3     3    22    1
     4    22    23    1
     5    23    24   ar
     6    24    25   ar
     7    25    26   ar
     8    26    27    1
     9    26    28   ar
    10    28    29   ar
    11     3     4   ar
    12     4     5   ar
    13     5     6   ar
    14     6     7   ar
    15     7     8   ar
    16     8     9   ar
    17     9    10   ar
    18    10    11   ar
    19    11    12   ar
    20    12    13   ar
    21     7    14    1
    22    14    15    1
    23    15    16    1
    24    16    18    1
    25    18    19    1
    26    19    20    1
    27    20    21    1
    28    16    17    1
    29    13     2   ar
    30    21    18    1
    31    29    23   ar
    32     8     4   ar
    33    13     9   ar
    34    17     6    1
@<TRIPOS>MOLECULE
*****
 29 34 0 0 0
SMALL
GASTEIGER

@<TRIPOS>ATOM
      1 O         140.5386  138.4216  155.3018 O.2     1  UNL1       -0.2443
      2 C         140.5700  138.6433  156.7850 C.ar    1  UNL1        0.3532
      3 N         141.7057  138.1003  157.6006 N.ar    1  UNL1       -0.2702
      4 C         141.7372  138.3220  159.0837 C.ar    1  UNL1        0.0965
      5 S         142.7194  137.9092  160.1398 S.2     1  UNL1       -0.0728
      6 C         142.2221  138.4188  161.4599 C.ar    1  UNL1        0.0210
      7 C         140.9325  139.1465  161.2199 C.ar    1  UNL1       -0.0126
      8 C         140.6328  139.0867  159.7514 C.ar    1  UNL1        0.0545
      9 C         139.4971  139.6297  158.9358 C.ar    1  UNL1        0.1717
     10 N         138.2768  140.4162  159.3130 N.ar    1  UNL1       -0.2032
     11 C         137.4912  140.6806  158.0628 C.ar    1  UNL1        0.2214
     12 N         138.2259  140.0575  156.9131 N.ar    1  UNL1       -0.1372
     13 N         139.4657  139.4080  157.4526 N.ar    1  UNL1       -0.1606
     14 C         140.1978  139.7697  162.3697 C.3     1  UNL1        0.0441
     15 C         140.7526  139.6651  163.7594 C.3     1  UNL1        0.0772
     16 N         142.0421  138.9374  163.9993 N.3     1  UNL1       -0.2652
     17 C         142.7769  138.3143  162.8497 C.3     1  UNL1        0.1055
     18 C         142.5968  138.8329  165.3891 C.3     1  UNL1        0.1175
     19 C         142.1597  139.3053  166.7440 C.3     1  UNL1        0.1606
     20 O         143.3815  138.6850  167.3544 O.3     1  UNL1       -0.3507
     21 C         143.8186  138.2125  165.9996 C.3     1  UNL1        0.1606
     22 C         142.8101  137.3356  156.9329 C.3     1  UNL1        0.1378
     23 C         142.6623  135.8627  156.6907 C.ar    1  UNL1        0.0006
     24 C         143.3909  134.8824  157.5615 C.ar    1  UNL1       -0.0015
     25 C         143.2432  133.4095  157.3193 C.ar    1  UNL1        0.0111
     26 C         142.3667  132.9168  156.2061 C.ar    1  UNL1        0.0577
     27 CL        142.2189  131.4439  155.9638 Cl      1  UNL1       -0.0822
     28 C         141.6381  133.8969  155.3353 C.ar    1  UNL1        0.0111
     29 C         141.7859  135.3699  155.5775 C.ar    1  UNL1       -0.0015
@<TRIPOS>BOND
     1     1     2    2
     2     2     3   ar
     3     3    22    1
     4    22    23    1
     5    23    24   ar
     6    24    25   ar
     7    25    26   ar
     8    26    27    1
     9    26    28   ar
    10    28    29   ar
    11     3     4   ar
    12     4     5   ar
    13     5     6   ar
    14     6     7   ar
    15     7     8   ar
    16     8     9   ar
    17     9    10   ar
    18    10    11   ar
    19    11    12   ar
    20    12    13   ar
    21     7    14    1
    22    14    15    1
    23    15    16    1
    24    16    18    1
    25    18    19    1
    26    19    20    1
    27    20    21    1
    28    16    17    1
    29    13     2   ar
    30    21    18    1
    31    29    23   ar
    32     8     4   ar
    33    13     9   ar
    34    17     6    1
