@<TRIPOS>MOLECULE
*****
 31 34 0 0 0
SMALL
GASTEIGER

@<TRIPOS>ATOM
      1 C         143.8981  139.3267  164.0564 C.3     1  UNL1        0.0723
      2 C         143.3104  139.8052  165.3510 C.ar    1  UNL1        0.1268
      3 N         143.3966  138.9452  166.5769 N.ar    1  UNL1       -0.2318
      4 C         142.8089  139.4236  167.8715 C.ar    1  UNL1        0.0871
      5 C         142.8951  138.5637  169.0974 C.ar    1  UNL1        0.0193
      6 C         142.3075  139.0421  170.3919 C.ar    1  UNL1        0.0015
      7 C         141.6337  140.3805  170.4605 C.ar    1  UNL1        0.0041
      8 C         141.5476  141.2405  169.2345 C.ar    1  UNL1        0.0775
      9 C         142.1352  140.7621  167.9400 C.ar    1  UNL1        0.0781
     10 C         142.0491  141.6220  166.7140 C.ar    1  UNL1        0.2669
     11 O         141.3753  142.9605  166.7826 O.2     1  UNL1       -0.2666
     12 N         142.6367  141.1436  165.4195 N.ar    1  UNL1       -0.2626
     13 C         142.5506  142.0036  164.1935 C.ar    1  UNL1        0.0681
     14 C         141.5057  141.7251  163.1539 C.ar    1  UNL1        0.0208
     15 C         141.4195  142.5850  161.9279 C.ar    1  UNL1        0.0384
     16 C         142.3783  143.7234  161.7415 C.ar    1  UNL1        0.1386
     17 C         143.4231  144.0019  162.7811 C.ar    1  UNL1        0.0384
     18 C         143.5093  143.1420  164.0070 C.ar    1  UNL1        0.0208
     19 O         142.2921  144.5834  160.5155 O.3     1  UNL1       -0.4754
     20 C         140.9622  144.8387  159.8704 C.3     1  UNL1        0.2068
     21 C         140.0036  145.8129  160.4884 C.3     1  UNL1        0.0646
     22 C         140.0469  146.0737  161.9649 C.3     1  UNL1        0.0759
     23 N         139.3309  145.1552  162.9101 N.3     1  UNL1       -0.2726
     24 C         139.6941  144.9081  164.3444 C.3     1  UNL1        0.0721
     25 C         138.7136  143.9226  164.9078 C.3     1  UNL1        0.0188
     26 C         137.7443  143.5606  163.8218 C.3     1  UNL1        0.0188
     27 C         138.1258  144.3224  162.5871 C.3     1  UNL1        0.0721
     28 C         140.8739  142.5789  169.3031 C.3     1  UNL1        0.4188
     29 F         140.2001  143.9173  169.3716 F       1  UNL1       -0.1659
     30 F         139.5569  141.9320  168.9913 F       1  UNL1       -0.1659
     31 F         142.1908  143.2259  169.6149 F       1  UNL1       -0.1659
@<TRIPOS>BOND
     1     1     2    1
     2     2     3   ar
     3     3     4   ar
     4     4     5   ar
     5     5     6   ar
     6     6     7   ar
     7     7     8   ar
     8     8    28    1
     9    28    29    1
    10    28    30    1
    11    28    31    1
    12     8     9   ar
    13     9    10   ar
    14    10    11    2
    15    10    12   ar
    16    12    13    1
    17    13    14   ar
    18    14    15   ar
    19    15    16   ar
    20    16    19    1
    21    19    20    1
    22    20    21    1
    23    21    22    1
    24    22    23    1
    25    23    24    1
    26    24    25    1
    27    25    26    1
    28    26    27    1
    29    16    17   ar
    30    17    18   ar
    31    12     2   ar
    32    18    13   ar
    33     9     4   ar
    34    27    23    1
@<TRIPOS>MOLECULE
*****
 31 34 0 0 0
SMALL
GASTEIGER

@<TRIPOS>ATOM
      1 C         140.8379  142.6744  164.2523 C.3     1  UNL1        0.0723
      2 C         141.0511  142.2569  165.6772 C.ar    1  UNL1        0.1268
      3 N         140.5187  143.1042  166.7946 N.ar    1  UNL1       -0.2318
      4 C         140.7318  142.6868  168.2196 C.ar    1  UNL1        0.0871
      5 C         140.1994  143.5341  169.3369 C.ar    1  UNL1        0.0193
      6 C         140.4126  143.1167  170.7618 C.ar    1  UNL1        0.0015
      7 C         141.1581  141.8519  171.0693 C.ar    1  UNL1        0.0041
      8 C         141.6905  141.0046  169.9519 C.ar    1  UNL1        0.0775
      9 C         141.4773  141.4221  168.5270 C.ar    1  UNL1        0.0781
     10 C         142.0098  140.5747  167.4096 C.ar    1  UNL1        0.2669
     11 O         142.7553  139.3100  167.7171 O.2     1  UNL1       -0.2666
     12 N         141.7966  140.9922  165.9847 N.ar    1  UNL1       -0.2626
     13 C         142.3290  140.1448  164.8673 C.ar    1  UNL1        0.0681
     14 C         141.5551  138.9481  164.3992 C.ar    1  UNL1        0.0208
     15 C         142.0875  138.1008  163.2818 C.ar    1  UNL1        0.0384
     16 C         143.3937  138.4502  162.6325 C.ar    1  UNL1        0.1386
     17 C         144.1676  139.6469  163.1005 C.ar    1  UNL1        0.0384
     18 C         143.6352  140.4942  164.2179 C.ar    1  UNL1        0.0208
     19 O         143.9261  137.6029  161.5150 O.3     1  UNL1       -0.4754
     20 C         143.1879  137.5308  160.2112 C.3     1  UNL1        0.2068
     21 C         142.4394  138.7284  159.7059 C.3     1  UNL1        0.0646
     22 C         140.9610  138.6432  159.4673 C.3     1  UNL1        0.0759
     23 N         140.0024  139.0074  160.5620 N.3     1  UNL1       -0.2726
     24 C         138.9714  138.1023  161.1686 C.3     1  UNL1        0.0721
     25 C         138.2382  138.8762  162.2238 C.3     1  UNL1        0.0188
     26 C         138.8161  140.2598  162.2695 C.3     1  UNL1        0.0188
     27 C         139.9064  140.3408  161.2424 C.3     1  UNL1        0.0721
     28 C         142.4360  139.7399  170.2594 C.3     1  UNL1        0.4188
     29 F         143.1816  138.4751  170.5669 F       1  UNL1       -0.1659
     30 F         141.1520  138.9672  170.1943 F       1  UNL1       -0.1659
     31 F         143.7200  140.5126  170.3245 F       1  UNL1       -0.1659
@<TRIPOS>BOND
     1     1     2    1
     2     2     3   ar
     3     3     4   ar
     4     4     5   ar
     5     5     6   ar
     6     6     7   ar
     7     7     8   ar
     8     8    28    1
     9    28    29    1
    10    28    30    1
    11    28    31    1
    12     8     9   ar
    13     9    10   ar
    14    10    11    2
    15    10    12   ar
    16    12    13    1
    17    13    14   ar
    18    14    15   ar
    19    15    16   ar
    20    16    19    1
    21    19    20    1
    22    20    21    1
    23    21    22    1
    24    22    23    1
    25    23    24    1
    26    24    25    1
    27    25    26    1
    28    26    27    1
    29    16    17   ar
    30    17    18   ar
    31    12     2   ar
    32    18    13   ar
    33     9     4   ar
    34    27    23    1
@<TRIPOS>MOLECULE
*****
 31 34 0 0 0
SMALL
GASTEIGER

@<TRIPOS>ATOM
      1 C         137.7694  144.1597  163.3599 C.3     1  UNL1        0.0723
      2 C         139.0751  143.7546  163.9774 C.ar    1  UNL1        0.1268
      3 N         139.1510  143.4615  165.4465 N.ar    1  UNL1       -0.2318
      4 C         140.4567  143.0565  166.0639 C.ar    1  UNL1        0.0871
      5 C         140.5326  142.7633  167.5330 C.ar    1  UNL1        0.0193
      6 C         141.8383  142.3583  168.1504 C.ar    1  UNL1        0.0015
      7 C         143.0680  142.2465  167.2988 C.ar    1  UNL1        0.0041
      8 C         142.9920  142.5397  165.8297 C.ar    1  UNL1        0.0775
      9 C         141.6864  142.9446  165.2123 C.ar    1  UNL1        0.0781
     10 C         141.6104  143.2378  163.7431 C.ar    1  UNL1        0.2669
     11 O         142.8401  143.1260  162.8915 O.2     1  UNL1       -0.2666
     12 N         140.3048  143.6428  163.1257 N.ar    1  UNL1       -0.2626
     13 C         140.2288  143.9360  161.6566 C.ar    1  UNL1        0.0681
     14 C         140.5048  145.3218  161.1531 C.ar    1  UNL1        0.0208
     15 C         140.4288  145.6150  159.6840 C.ar    1  UNL1        0.0384
     16 C         140.0768  144.5225  158.7184 C.ar    1  UNL1        0.1386
     17 C         139.8008  143.1367  159.2219 C.ar    1  UNL1        0.0384
     18 C         139.8768  142.8435  160.6910 C.ar    1  UNL1        0.0208
     19 O         140.0009  144.8156  157.2493 O.3     1  UNL1       -0.4754
     20 C         140.2708  146.2028  156.7464 C.3     1  UNL1        0.2068
     21 C         139.1588  147.0143  156.1508 C.3     1  UNL1        0.0646
     22 C         139.3910  147.7939  154.8905 C.3     1  UNL1        0.0759
     23 N         139.1862  149.2798  154.8793 N.3     1  UNL1       -0.2726
     24 C         139.6463  150.2252  153.8093 C.3     1  UNL1        0.0721
     25 C         139.2298  151.6109  154.2048 C.3     1  UNL1        0.0188
     26 C         138.5123  151.5220  155.5191 C.3     1  UNL1        0.0188
     27 C         138.4854  150.0813  155.9360 C.3     1  UNL1        0.0721
     28 C         144.2217  142.4278  164.9780 C.3     1  UNL1        0.4188
     29 F         145.4514  142.3160  164.1264 F       1  UNL1       -0.1659
     30 F         143.8964  140.9908  164.6970 F       1  UNL1       -0.1659
     31 F         144.5470  143.8649  165.2591 F       1  UNL1       -0.1659
@<TRIPOS>BOND
     1     1     2    1
     2     2     3   ar
     3     3     4   ar
     4     4     5   ar
     5     5     6   ar
     6     6     7   ar
     7     7     8   ar
     8     8    28    1
     9    28    29    1
    10    28    30    1
    11    28    31    1
    12     8     9   ar
    13     9    10   ar
    14    10    11    2
    15    10    12   ar
    16    12    13    1
    17    13    14   ar
    18    14    15   ar
    19    15    16   ar
    20    16    19    1
    21    19    20    1
    22    20    21    1
    23    21    22    1
    24    22    23    1
    25    23    24    1
    26    24    25    1
    27    25    26    1
    28    26    27    1
    29    16    17   ar
    30    17    18   ar
    31    12     2   ar
    32    18    13   ar
    33     9     4   ar
    34    27    23    1
@<TRIPOS>MOLECULE
*****
 31 34 0 0 0
SMALL
GASTEIGER

@<TRIPOS>ATOM
      1 C         138.8753  137.8444  163.5222 C.3     1  UNL1        0.0723
      2 C         139.4073  138.6295  164.6845 C.ar    1  UNL1        0.1268
      3 N         138.6383  138.6784  165.9714 N.ar    1  UNL1       -0.2318
      4 C         139.1703  139.4634  167.1336 C.ar    1  UNL1        0.0871
      5 C         138.4013  139.5123  168.4206 C.ar    1  UNL1        0.0193
      6 C         138.9333  140.2974  169.5827 C.ar    1  UNL1        0.0015
      7 C         140.2342  141.0335  169.4580 C.ar    1  UNL1        0.0041
      8 C         141.0033  140.9846  168.1711 C.ar    1  UNL1        0.0775
      9 C         140.4713  140.1996  167.0089 C.ar    1  UNL1        0.0781
     10 C         141.2403  140.1506  165.7219 C.ar    1  UNL1        0.2669
     11 O         142.5413  140.8867  165.5971 O.2     1  UNL1       -0.2666
     12 N         140.7083  139.3656  164.5597 N.ar    1  UNL1       -0.2626
     13 C         141.4773  139.3166  163.2727 C.ar    1  UNL1        0.0681
     14 C         141.0625  140.1794  162.1179 C.ar    1  UNL1        0.0208
     15 C         141.8314  140.1305  160.8310 C.ar    1  UNL1        0.0384
     16 C         143.0152  139.2188  160.6988 C.ar    1  UNL1        0.1386
     17 C         143.4300  138.3560  161.8536 C.ar    1  UNL1        0.0384
     18 C         142.6611  138.4050  163.1406 C.ar    1  UNL1        0.0208
     19 O         143.7842  139.1699  159.4118 O.3     1  UNL1       -0.4754
     20 C         143.6274  140.2681  158.4022 C.3     1  UNL1        0.2068
     21 C         144.4642  141.5085  158.5073 C.3     1  UNL1        0.0646
     22 C         143.9070  142.7357  159.1657 C.3     1  UNL1        0.0759
     23 N         143.9213  142.8568  160.6607 N.3     1  UNL1       -0.2726
     24 C         144.9108  142.2153  161.5878 C.3     1  UNL1        0.0721
     25 C         144.5498  142.6028  162.9912 C.3     1  UNL1        0.0188
     26 C         143.3371  143.4837  162.9315 C.3     1  UNL1        0.0188
     27 C         142.9487  143.6407  161.4911 C.3     1  UNL1        0.0721
     28 C         142.3042  141.7207  168.0463 C.3     1  UNL1        0.4188
     29 F         143.6052  142.4568  167.9215 F       1  UNL1       -0.1659
     30 F         143.0347  140.5175  168.5646 F       1  UNL1       -0.1659
     31 F         141.5737  142.9239  167.5280 F       1  UNL1       -0.1659
@<TRIPOS>BOND
     1     1     2    1
     2     2     3   ar
     3     3     4   ar
     4     4     5   ar
     5     5     6   ar
     6     6     7   ar
     7     7     8   ar
     8     8    28    1
     9    28    29    1
    10    28    30    1
    11    28    31    1
    12     8     9   ar
    13     9    10   ar
    14    10    11    2
    15    10    12   ar
    16    12    13    1
    17    13    14   ar
    18    14    15   ar
    19    15    16   ar
    20    16    19    1
    21    19    20    1
    22    20    21    1
    23    21    22    1
    24    22    23    1
    25    23    24    1
    26    24    25    1
    27    25    26    1
    28    26    27    1
    29    16    17   ar
    30    17    18   ar
    31    12     2   ar
    32    18    13   ar
    33     9     4   ar
    34    27    23    1
@<TRIPOS>MOLECULE
*****
 31 34 0 0 0
SMALL
GASTEIGER

@<TRIPOS>ATOM
      1 C         142.8698  140.9024  163.9121 C.3     1  UNL1        0.0723
      2 C         142.4448  140.9662  165.3493 C.ar    1  UNL1        0.1268
      3 N         142.8801  139.8982  166.3083 N.ar    1  UNL1       -0.2318
      4 C         142.4551  139.9620  167.7454 C.ar    1  UNL1        0.0871
      5 C         142.8904  138.8940  168.7044 C.ar    1  UNL1        0.0193
      6 C         142.4653  138.9579  170.1415 C.ar    1  UNL1        0.0015
      7 C         141.6050  140.0899  170.6196 C.ar    1  UNL1        0.0041
      8 C         141.1697  141.1579  169.6606 C.ar    1  UNL1        0.0775
      9 C         141.5948  141.0940  168.2235 C.ar    1  UNL1        0.0781
     10 C         141.1595  142.1621  167.2644 C.ar    1  UNL1        0.2669
     11 O         140.2992  143.2940  167.7424 O.2     1  UNL1       -0.2666
     12 N         141.5845  142.0982  165.8273 N.ar    1  UNL1       -0.2626
     13 C         141.1492  143.1663  164.8682 C.ar    1  UNL1        0.0681
     14 C         142.1285  144.2047  164.4072 C.ar    1  UNL1        0.0208
     15 C         141.6933  145.2728  163.4482 C.ar    1  UNL1        0.0384
     16 C         140.2788  145.3023  162.9501 C.ar    1  UNL1        0.1386
     17 C         139.2994  144.2639  163.4111 C.ar    1  UNL1        0.0384
     18 C         139.7347  143.1958  164.3701 C.ar    1  UNL1        0.0208
     19 O         139.8435  146.3704  161.9910 O.3     1  UNL1       -0.4754
     20 C         139.8443  146.0993  160.5157 C.3     1  UNL1        0.2068
     21 C         140.9249  145.2542  159.9091 C.3     1  UNL1        0.0646
     22 C         140.5789  143.9480  159.2578 C.3     1  UNL1        0.0759
     23 N         140.0178  142.8257  160.0796 N.3     1  UNL1       -0.2726
     24 C         138.5664  142.4708  160.2134 C.3     1  UNL1        0.0721
     25 C         138.4611  141.2869  161.1283 C.3     1  UNL1        0.0188
     26 C         139.8473  140.9099  161.5601 C.3     1  UNL1        0.0188
     27 C         140.8094  141.8610  160.9119 C.3     1  UNL1        0.0721
     28 C         140.3094  142.2899  170.1386 C.3     1  UNL1        0.4188
     29 F         139.4491  143.4218  170.6167 F       1  UNL1       -0.1659
     30 F         139.0818  141.4727  169.8644 F       1  UNL1       -0.1659
     31 F         141.5370  143.1071  170.4128 F       1  UNL1       -0.1659
@<TRIPOS>BOND
     1     1     2    1
     2     2     3   ar
     3     3     4   ar
     4     4     5   ar
     5     5     6   ar
     6     6     7   ar
     7     7     8   ar
     8     8    28    1
     9    28    29    1
    10    28    30    1
    11    28    31    1
    12     8     9   ar
    13     9    10   ar
    14    10    11    2
    15    10    12   ar
    16    12    13    1
    17    13    14   ar
    18    14    15   ar
    19    15    16   ar
    20    16    19    1
    21    19    20    1
    22    20    21    1
    23    21    22    1
    24    22    23    1
    25    23    24    1
    26    24    25    1
    27    25    26    1
    28    26    27    1
    29    16    17   ar
    30    17    18   ar
    31    12     2   ar
    32    18    13   ar
    33     9     4   ar
    34    27    23    1
@<TRIPOS>MOLECULE
*****
 31 34 0 0 0
SMALL
GASTEIGER

@<TRIPOS>ATOM
      1 C         137.9513  141.2342  161.1793 C.3     1  UNL1        0.0723
      2 C         138.5507  141.1795  162.5534 C.ar    1  UNL1        0.1268
      3 N         137.9817  140.2493  163.5833 N.ar    1  UNL1       -0.2318
      4 C         138.5810  140.1946  164.9574 C.ar    1  UNL1        0.0871
      5 C         138.0120  139.2645  165.9874 C.ar    1  UNL1        0.0193
      6 C         138.6114  139.2098  167.3613 C.ar    1  UNL1        0.0015
      7 C         139.7798  140.0854  167.7052 C.ar    1  UNL1        0.0041
      8 C         140.3488  141.0155  166.6752 C.ar    1  UNL1        0.0775
      9 C         139.7494  141.0702  165.3013 C.ar    1  UNL1        0.0781
     10 C         140.3185  142.0004  164.2712 C.ar    1  UNL1        0.2669
     11 O         141.4869  142.8759  164.6152 O.2     1  UNL1       -0.2666
     12 N         139.7191  142.0550  162.8973 N.ar    1  UNL1       -0.2626
     13 C         140.2881  142.9853  161.8672 C.ar    1  UNL1        0.0681
     14 C         141.3561  142.5039  160.9304 C.ar    1  UNL1        0.0208
     15 C         141.9252  143.4340  159.9003 C.ar    1  UNL1        0.0384
     16 C         141.4262  144.8455  159.8071 C.ar    1  UNL1        0.1386
     17 C         140.3581  145.3268  160.7440 C.ar    1  UNL1        0.0384
     18 C         139.7891  144.3967  161.7740 C.ar    1  UNL1        0.0208
     19 O         141.9952  145.7757  158.7770 O.3     1  UNL1       -0.4754
     20 C         141.3961  145.8300  157.4029 C.3     1  UNL1        0.2068
     21 C         139.9937  146.3280  157.2153 C.3     1  UNL1        0.0646
     22 C         139.4867  146.6404  155.8386 C.3     1  UNL1        0.0759
     23 N         139.3528  148.0668  155.3944 N.3     1  UNL1       -0.2726
     24 C         139.9421  148.6617  154.1497 C.3     1  UNL1        0.0721
     25 C         139.5596  150.1113  154.1029 C.3     1  UNL1        0.0188
     26 C         138.7340  150.4125  155.3185 C.3     1  UNL1        0.0188
     27 C         138.6062  149.1488  156.1167 C.3     1  UNL1        0.0721
     28 C         141.5172  141.8911  167.0192 C.3     1  UNL1        0.4188
     29 F         142.6856  142.7666  167.3631 F       1  UNL1       -0.1659
     30 F         142.4577  140.8125  166.5697 F       1  UNL1       -0.1659
     31 F         140.5767  142.9697  167.4686 F       1  UNL1       -0.1659
@<TRIPOS>BOND
     1     1     2    1
     2     2     3   ar
     3     3     4   ar
     4     4     5   ar
     5     5     6   ar
     6     6     7   ar
     7     7     8   ar
     8     8    28    1
     9    28    29    1
    10    28    30    1
    11    28    31    1
    12     8     9   ar
    13     9    10   ar
    14    10    11    2
    15    10    12   ar
    16    12    13    1
    17    13    14   ar
    18    14    15   ar
    19    15    16   ar
    20    16    19    1
    21    19    20    1
    22    20    21    1
    23    21    22    1
    24    22    23    1
    25    23    24    1
    26    24    25    1
    27    25    26    1
    28    26    27    1
    29    16    17   ar
    30    17    18   ar
    31    12     2   ar
    32    18    13   ar
    33     9     4   ar
    34    27    23    1
@<TRIPOS>MOLECULE
*****
 31 34 0 0 0
SMALL
GASTEIGER

@<TRIPOS>ATOM
      1 C         142.1185  139.1996  164.2452 C.3     1  UNL1        0.0723
      2 C         141.9481  139.8079  165.6058 C.ar    1  UNL1        0.1268
      3 N         142.4646  139.0910  166.8179 N.ar    1  UNL1       -0.2318
      4 C         142.2942  139.6994  168.1784 C.ar    1  UNL1        0.0871
      5 C         142.8107  138.9825  169.3906 C.ar    1  UNL1        0.0193
      6 C         142.6402  139.5908  170.7510 C.ar    1  UNL1        0.0015
      7 C         141.9533  140.9160  170.8993 C.ar    1  UNL1        0.0041
      8 C         141.4368  141.6329  169.6872 C.ar    1  UNL1        0.0775
      9 C         141.6072  141.0245  168.3268 C.ar    1  UNL1        0.0781
     10 C         141.0907  141.7414  167.1145 C.ar    1  UNL1        0.2669
     11 O         140.4037  143.0666  167.2629 O.2     1  UNL1       -0.2666
     12 N         141.2611  141.1331  165.7541 N.ar    1  UNL1       -0.2626
     13 C         140.7446  141.8499  164.5419 C.ar    1  UNL1        0.0681
     14 C         139.3350  141.6246  164.0812 C.ar    1  UNL1        0.0208
     15 C         138.8184  142.3414  162.8691 C.ar    1  UNL1        0.0384
     16 C         139.7115  143.2835  162.1176 C.ar    1  UNL1        0.1386
     17 C         141.1212  143.5088  162.5782 C.ar    1  UNL1        0.0384
     18 C         141.6377  142.7920  163.7904 C.ar    1  UNL1        0.0208
     19 O         139.1950  144.0004  160.9054 O.3     1  UNL1       -0.4754
     20 C         139.4496  143.4400  159.5375 C.3     1  UNL1        0.2068
     21 C         138.5009  142.4383  158.9488 C.3     1  UNL1        0.0646
     22 C         138.9094  141.0001  158.8268 C.3     1  UNL1        0.0759
     23 N         138.7628  140.0767  159.9996 N.3     1  UNL1       -0.2726
     24 C         137.4714  139.6690  160.6448 C.3     1  UNL1        0.0721
     25 C         137.7922  138.7391  161.7772 C.3     1  UNL1        0.0188
     26 C         139.2819  138.5720  161.8320 C.3     1  UNL1        0.0188
     27 C         139.8818  139.3987  160.7333 C.3     1  UNL1        0.0721
     28 C         140.7498  142.9580  169.8355 C.3     1  UNL1        0.4188
     29 F         140.0629  144.2832  169.9838 F       1  UNL1       -0.1659
     30 F         142.0752  143.6549  169.7482 F       1  UNL1       -0.1659
     31 F         139.4244  142.2612  169.9229 F       1  UNL1       -0.1659
@<TRIPOS>BOND
     1     1     2    1
     2     2     3   ar
     3     3     4   ar
     4     4     5   ar
     5     5     6   ar
     6     6     7   ar
     7     7     8   ar
     8     8    28    1
     9    28    29    1
    10    28    30    1
    11    28    31    1
    12     8     9   ar
    13     9    10   ar
    14    10    11    2
    15    10    12   ar
    16    12    13    1
    17    13    14   ar
    18    14    15   ar
    19    15    16   ar
    20    16    19    1
    21    19    20    1
    22    20    21    1
    23    21    22    1
    24    22    23    1
    25    23    24    1
    26    24    25    1
    27    25    26    1
    28    26    27    1
    29    16    17   ar
    30    17    18   ar
    31    12     2   ar
    32    18    13   ar
    33     9     4   ar
    34    27    23    1
@<TRIPOS>MOLECULE
*****
 31 34 0 0 0
SMALL
GASTEIGER

@<TRIPOS>ATOM
      1 C         138.8942  137.6127  163.1566 C.3     1  UNL1        0.0723
      2 C         139.4405  138.4496  164.2751 C.ar    1  UNL1        0.1268
      3 N         138.7099  138.5227  165.5831 N.ar    1  UNL1       -0.2318
      4 C         139.2562  139.3597  166.7017 C.ar    1  UNL1        0.0871
      5 C         138.5256  139.4328  168.0096 C.ar    1  UNL1        0.0193
      6 C         139.0719  140.2698  169.1281 C.ar    1  UNL1        0.0015
      7 C         140.3489  141.0336  168.9386 C.ar    1  UNL1        0.0041
      8 C         141.0795  140.9605  167.6306 C.ar    1  UNL1        0.0775
      9 C         140.5332  140.1236  166.5122 C.ar    1  UNL1        0.0781
     10 C         141.2638  140.0504  165.2041 C.ar    1  UNL1        0.2669
     11 O         142.5408  140.8143  165.0146 O.2     1  UNL1       -0.2666
     12 N         140.7175  139.2135  164.0857 N.ar    1  UNL1       -0.2626
     13 C         141.4481  139.1404  162.7776 C.ar    1  UNL1        0.0681
     14 C         141.1280  140.1161  161.6842 C.ar    1  UNL1        0.0208
     15 C         141.8586  140.0430  160.3762 C.ar    1  UNL1        0.0384
     16 C         142.9093  138.9942  160.1616 C.ar    1  UNL1        0.1386
     17 C         143.2293  138.0185  161.2550 C.ar    1  UNL1        0.0384
     18 C         142.4988  138.0916  162.5630 C.ar    1  UNL1        0.0208
     19 O         143.6399  138.9211  158.8536 O.3     1  UNL1       -0.4754
     20 C         142.8960  138.5773  157.5972 C.3     1  UNL1        0.2068
     21 C         142.4253  137.1721  157.3650 C.3     1  UNL1        0.0646
     22 C         143.2829  136.2113  156.5961 C.3     1  UNL1        0.0759
     23 N         142.8051  134.8109  156.3501 N.3     1  UNL1       -0.2726
     24 C         143.3779  133.5644  156.9571 C.3     1  UNL1        0.0721
     25 C         142.5975  132.3942  156.4361 C.3     1  UNL1        0.0188
     26 C         141.5424  132.9173  155.5071 C.3     1  UNL1        0.0188
     27 C         141.6707  134.4109  155.4539 C.3     1  UNL1        0.0721
     28 C         142.3565  141.7244  167.4411 C.3     1  UNL1        0.4188
     29 F         143.6334  142.4882  167.2516 F       1  UNL1       -0.1659
     30 F         141.5808  142.8850  166.8923 F       1  UNL1       -0.1659
     31 F         143.1322  140.5637  167.9899 F       1  UNL1       -0.1659
@<TRIPOS>BOND
     1     1     2    1
     2     2     3   ar
     3     3     4   ar
     4     4     5   ar
     5     5     6   ar
     6     6     7   ar
     7     7     8   ar
     8     8    28    1
     9    28    29    1
    10    28    30    1
    11    28    31    1
    12     8     9   ar
    13     9    10   ar
    14    10    11    2
    15    10    12   ar
    16    12    13    1
    17    13    14   ar
    18    14    15   ar
    19    15    16   ar
    20    16    19    1
    21    19    20    1
    22    20    21    1
    23    21    22    1
    24    22    23    1
    25    23    24    1
    26    24    25    1
    27    25    26    1
    28    26    27    1
    29    16    17   ar
    30    17    18   ar
    31    12     2   ar
    32    18    13   ar
    33     9     4   ar
    34    27    23    1
@<TRIPOS>MOLECULE
*****
 31 34 0 0 0
SMALL
GASTEIGER

@<TRIPOS>ATOM
      1 C         139.8055  140.3524  164.2318 C.3     1  UNL1        0.0723
      2 C         140.2822  140.6459  165.6235 C.ar    1  UNL1        0.1268
      3 N         139.4628  140.2149  166.8036 N.ar    1  UNL1       -0.2318
      4 C         139.9396  140.5085  168.1952 C.ar    1  UNL1        0.0871
      5 C         139.1201  140.0775  169.3753 C.ar    1  UNL1        0.0193
      6 C         139.5969  140.3710  170.7668 C.ar    1  UNL1        0.0015
      7 C         140.8932  141.0956  170.9783 C.ar    1  UNL1        0.0041
      8 C         141.7126  141.5266  169.7982 C.ar    1  UNL1        0.0775
      9 C         141.2358  141.2331  168.4067 C.ar    1  UNL1        0.0781
     10 C         142.0553  141.6641  167.2265 C.ar    1  UNL1        0.2669
     11 O         143.3516  142.3886  167.4379 O.2     1  UNL1       -0.2666
     12 N         141.5785  141.3705  165.8349 N.ar    1  UNL1       -0.2626
     13 C         142.3980  141.8015  164.6547 C.ar    1  UNL1        0.0681
     14 C         143.5423  140.9525  164.1860 C.ar    1  UNL1        0.0208
     15 C         144.3618  141.3835  163.0059 C.ar    1  UNL1        0.0384
     16 C         144.0369  142.6634  162.2945 C.ar    1  UNL1        0.1386
     17 C         142.8926  143.5124  162.7632 C.ar    1  UNL1        0.0384
     18 C         142.0731  143.0815  163.9434 C.ar    1  UNL1        0.0208
     19 O         144.8564  143.0944  161.1143 O.3     1  UNL1       -0.4754
     20 C         144.6621  142.4301  159.7836 C.3     1  UNL1        0.2068
     21 C         143.2779  142.1281  159.2910 C.3     1  UNL1        0.0646
     22 C         142.8734  140.7107  159.0129 C.3     1  UNL1        0.0759
     23 N         142.8394  139.7079  160.1278 N.3     1  UNL1       -0.2726
     24 C         141.6881  139.4616  161.0574 C.3     1  UNL1        0.0721
     25 C         142.0879  138.3767  162.0131 C.3     1  UNL1        0.0188
     26 C         143.4862  137.9525  161.6742 C.3     1  UNL1        0.0188
     27 C         143.9506  138.7752  160.5090 C.3     1  UNL1        0.0721
     28 C         143.0089  142.2512  170.0097 C.3     1  UNL1        0.4188
     29 F         144.3051  142.9757  170.2211 F       1  UNL1       -0.1659
     30 F         143.7366  140.9399  170.0419 F       1  UNL1       -0.1659
     31 F         142.2812  143.5624  169.9774 F       1  UNL1       -0.1659
@<TRIPOS>BOND
     1     1     2    1
     2     2     3   ar
     3     3     4   ar
     4     4     5   ar
     5     5     6   ar
     6     6     7   ar
     7     7     8   ar
     8     8    28    1
     9    28    29    1
    10    28    30    1
    11    28    31    1
    12     8     9   ar
    13     9    10   ar
    14    10    11    2
    15    10    12   ar
    16    12    13    1
    17    13    14   ar
    18    14    15   ar
    19    15    16   ar
    20    16    19    1
    21    19    20    1
    22    20    21    1
    23    21    22    1
    24    22    23    1
    25    23    24    1
    26    24    25    1
    27    25    26    1
    28    26    27    1
    29    16    17   ar
    30    17    18   ar
    31    12     2   ar
    32    18    13   ar
    33     9     4   ar
    34    27    23    1
