@<TRIPOS>MOLECULE
*****
 23 25 0 0 0
SMALL
GASTEIGER

@<TRIPOS>ATOM
      1 C         140.1726  140.7412  167.3856 C.ar    1  UNL1        0.0880
      2 C         139.4402  140.0941  168.5234 C.ar    1  UNL1        0.0076
      3 C         139.2997  140.8146  169.8314 C.ar    1  UNL1        0.0003
      4 C         139.8917  142.1823  170.0016 C.ar    1  UNL1        0.0031
      5 C         140.6242  142.8294  168.8638 C.ar    1  UNL1        0.0376
      6 C         140.7646  142.1089  167.5557 C.ar    1  UNL1        0.1496
      7 C         142.6331  139.1197  166.8229 C.3     1  UNL1        0.1151
      8 N         141.5433  139.2099  165.7961 N.am    1  UNL1       -0.2745
      9 C         140.3131  140.0206  166.0774 C.2     1  UNL1        0.2520
     10 O         139.2233  140.1108  165.0507 O.2     1  UNL1       -0.2698
     11 C         141.6838  138.4893  164.4880 C.3     1  UNL1        0.0928
     12 C         142.5342  138.9214  163.3303 C.3     1  UNL1        0.0383
     13 C         142.3745  137.9093  162.2347 C.3     1  UNL1        0.0704
     14 N         141.4256  136.8517  162.7154 N.3     1  UNL1       -0.2960
     15 C         140.9987  137.2102  164.1080 C.3     1  UNL1        0.0887
     16 H         141.8915  135.9443  162.7189 H       1  UNL1        0.1233
     17 O         141.4971  142.7560  166.4178 O.3     1  UNL1       -0.4533
     18 C         140.7370  143.5190  165.3738 C.ar    1  UNL1        0.1453
     19 C         141.4416  144.0157  164.1462 C.ar    1  UNL1        0.0375
     20 C         140.6815  144.7787  163.1022 C.ar    1  UNL1        0.0031
     21 C         139.2167  145.0449  163.2857 C.ar    1  UNL1        0.0002
     22 C         138.5121  144.5482  164.5132 C.ar    1  UNL1        0.0031
     23 C         139.2722  143.7852  165.5572 C.ar    1  UNL1        0.0375
@<TRIPOS>BOND
     1     7     8    1
     2     8     9   am
     3     9    10    2
     4     9     1    1
     5     1     2   ar
     6     2     3   ar
     7     3     4   ar
     8     4     5   ar
     9     5     6   ar
    10     6    17    1
    11    17    18    1
    12    18    19   ar
    13    19    20   ar
    14    20    21   ar
    15    21    22   ar
    16    22    23   ar
    17    11     8    1
    18    11    12    1
    19    12    13    1
    20    13    14    1
    21    14    15    1
    22     6     1   ar
    23    23    18   ar
    24    15    11    1
    25    14    16    1
@<TRIPOS>MOLECULE
*****
 23 25 0 0 0
SMALL
GASTEIGER

@<TRIPOS>ATOM
      1 C         138.9585  139.0953  165.4994 C.ar    1  UNL1        0.0880
      2 C         139.3056  137.7416  164.9544 C.ar    1  UNL1        0.0076
      3 C         139.0650  137.4318  163.5067 C.ar    1  UNL1        0.0003
      4 C         138.4773  138.4756  162.6039 C.ar    1  UNL1        0.0031
      5 C         138.1302  139.8293  163.1489 C.ar    1  UNL1        0.0376
      6 C         138.3708  140.1391  164.5967 C.ar    1  UNL1        0.1496
      7 C         141.5459  140.3495  166.3552 C.3     1  UNL1        0.1151
      8 N         140.4928  140.0323  167.3751 N.am    1  UNL1       -0.2745
      9 C         139.1991  139.4052  166.9473 C.2     1  UNL1        0.2520
     10 O         138.1460  139.0879  167.9672 O.2     1  UNL1       -0.2698
     11 C         140.7334  140.3421  168.8230 C.3     1  UNL1        0.0928
     12 C         140.1891  141.5206  169.5746 C.3     1  UNL1        0.0383
     13 C         140.6798  141.4348  170.9895 C.3     1  UNL1        0.0704
     14 N         141.5273  140.2033  171.1123 N.3     1  UNL1       -0.2960
     15 C         141.5604  139.5280  169.7733 C.3     1  UNL1        0.0887
     16 H         141.1253  139.5742  171.8073 H       1  UNL1        0.1233
     17 O         138.0237  141.4928  165.1417 O.3     1  UNL1       -0.4533
     18 C         138.5837  142.7266  164.4981 C.ar    1  UNL1        0.1453
     19 C         137.7993  143.4413  163.4378 C.ar    1  UNL1        0.0375
     20 C         138.3592  144.6750  162.7941 C.ar    1  UNL1        0.0031
     21 C         139.7035  145.1941  163.2108 C.ar    1  UNL1        0.0002
     22 C         140.4878  144.4795  164.2710 C.ar    1  UNL1        0.0031
     23 C         139.9279  143.2457  164.9146 C.ar    1  UNL1        0.0375
@<TRIPOS>BOND
     1     7     8    1
     2     8     9   am
     3     9    10    2
     4     9     1    1
     5     1     2   ar
     6     2     3   ar
     7     3     4   ar
     8     4     5   ar
     9     5     6   ar
    10     6    17    1
    11    17    18    1
    12    18    19   ar
    13    19    20   ar
    14    20    21   ar
    15    21    22   ar
    16    22    23   ar
    17    11     8    1
    18    11    12    1
    19    12    13    1
    20    13    14    1
    21    14    15    1
    22     6     1   ar
    23    23    18   ar
    24    15    11    1
    25    14    16    1
@<TRIPOS>MOLECULE
*****
 23 25 0 0 0
SMALL
GASTEIGER

@<TRIPOS>ATOM
      1 C         139.9960  139.2466  165.3954 C.ar    1  UNL1        0.0880
      2 C         139.5026  137.9371  164.8555 C.ar    1  UNL1        0.0076
      3 C         138.3647  137.2290  165.5292 C.ar    1  UNL1        0.0003
      4 C         137.7203  137.8304  166.7428 C.ar    1  UNL1        0.0031
      5 C         138.2137  139.1400  167.2828 C.ar    1  UNL1        0.0376
      6 C         139.3515  139.8480  166.6091 C.ar    1  UNL1        0.1496
      7 C         142.8240  138.6312  166.1851 C.3     1  UNL1        0.1151
      8 N         142.5478  139.6471  165.1165 N.am    1  UNL1       -0.2745
      9 C         141.1338  139.9548  164.7217 C.2     1  UNL1        0.2520
     10 O         140.8576  140.9706  163.6532 O.2     1  UNL1       -0.2698
     11 C         143.6857  140.3553  164.4428 C.3     1  UNL1        0.0928
     12 C         144.2182  141.7103  164.8037 C.3     1  UNL1        0.0383
     13 C         145.3525  142.0253  163.8739 C.3     1  UNL1        0.0704
     14 N         145.5208  140.8648  162.9384 N.3     1  UNL1       -0.2960
     15 C         144.4907  139.8327  163.2901 C.3     1  UNL1        0.0887
     16 H         146.4556  140.4699  163.0414 H       1  UNL1        0.1233
     17 O         139.8450  141.1577  167.1491 O.3     1  UNL1       -0.4533
     18 C         141.0147  141.1890  168.0876 C.ar    1  UNL1        0.1453
     19 C         141.1341  140.1593  169.1719 C.ar    1  UNL1        0.0375
     20 C         142.3038  140.1907  170.1104 C.ar    1  UNL1        0.0031
     21 C         143.3541  141.2517  169.9647 C.ar    1  UNL1        0.0002
     22 C         143.2347  142.2813  168.8804 C.ar    1  UNL1        0.0031
     23 C         142.0650  142.2499  167.9419 C.ar    1  UNL1        0.0375
@<TRIPOS>BOND
     1     7     8    1
     2     8     9   am
     3     9    10    2
     4     9     1    1
     5     1     2   ar
     6     2     3   ar
     7     3     4   ar
     8     4     5   ar
     9     5     6   ar
    10     6    17    1
    11    17    18    1
    12    18    19   ar
    13    19    20   ar
    14    20    21   ar
    15    21    22   ar
    16    22    23   ar
    17    11     8    1
    18    11    12    1
    19    12    13    1
    20    13    14    1
    21    14    15    1
    22     6     1   ar
    23    23    18   ar
    24    15    11    1
    25    14    16    1
@<TRIPOS>MOLECULE
*****
 23 25 0 0 0
SMALL
GASTEIGER

@<TRIPOS>ATOM
      1 C         140.8509  141.8680  167.8479 C.ar    1  UNL1        0.0880
      2 C         140.3643  142.8479  168.8741 C.ar    1  UNL1        0.0076
      3 C         141.3046  143.3657  169.9217 C.ar    1  UNL1        0.0003
      4 C         142.7315  142.9036  169.9433 C.ar    1  UNL1        0.0031
      5 C         143.2181  141.9236  168.9172 C.ar    1  UNL1        0.0376
      6 C         142.2777  141.4058  167.8695 C.ar    1  UNL1        0.1496
      7 C         140.3809  143.4478  165.3413 C.3     1  UNL1        0.1151
      8 N         139.6756  142.1400  165.5469 N.am    1  UNL1       -0.2745
      9 C         139.9106  141.3501  166.8002 C.2     1  UNL1        0.2520
     10 O         139.2053  140.0423  167.0058 O.2     1  UNL1       -0.2698
     11 C         138.7353  141.6221  164.4992 C.3     1  UNL1        0.0928
     12 C         138.8971  140.3504  163.7203 C.3     1  UNL1        0.0383
     13 C         137.7299  140.2273  162.7861 C.3     1  UNL1        0.0704
     14 N         136.8468  141.4231  162.9877 N.3     1  UNL1       -0.2960
     15 C         137.4682  142.2851  164.0464 C.3     1  UNL1        0.0887
     16 H         135.9193  141.1219  163.2868 H       1  UNL1        0.1233
     17 O         142.7643  140.4259  166.8433 O.3     1  UNL1       -0.4533
     18 C         143.6185  140.8957  165.7033 C.ar    1  UNL1        0.1453
     19 C         144.2416  139.8982  164.7722 C.ar    1  UNL1        0.0375
     20 C         145.0958  140.3681  163.6322 C.ar    1  UNL1        0.0031
     21 C         145.3270  141.8354  163.4234 C.ar    1  UNL1        0.0002
     22 C         144.7039  142.8328  164.3545 C.ar    1  UNL1        0.0031
     23 C         143.8497  142.3630  165.4945 C.ar    1  UNL1        0.0375
@<TRIPOS>BOND
     1     7     8    1
     2     8     9   am
     3     9    10    2
     4     9     1    1
     5     1     2   ar
     6     2     3   ar
     7     3     4   ar
     8     4     5   ar
     9     5     6   ar
    10     6    17    1
    11    17    18    1
    12    18    19   ar
    13    19    20   ar
    14    20    21   ar
    15    21    22   ar
    16    22    23   ar
    17    11     8    1
    18    11    12    1
    19    12    13    1
    20    13    14    1
    21    14    15    1
    22     6     1   ar
    23    23    18   ar
    24    15    11    1
    25    14    16    1
@<TRIPOS>MOLECULE
*****
 23 25 0 0 0
SMALL
GASTEIGER

@<TRIPOS>ATOM
      1 C         142.5548  138.4046  164.8996 C.ar    1  UNL1        0.0880
      2 C         141.3899  137.4991  164.6295 C.ar    1  UNL1        0.0076
      3 C         141.0226  137.1504  163.2176 C.ar    1  UNL1        0.0003
      4 C         141.8202  137.7073  162.0758 C.ar    1  UNL1        0.0031
      5 C         142.9851  138.6128  162.3459 C.ar    1  UNL1        0.0376
      6 C         143.3524  138.9615  163.7578 C.ar    1  UNL1        0.1496
      7 C         141.0921  140.5974  166.3322 C.3     1  UNL1        0.1151
      8 N         142.1908  139.8497  167.0278 N.am    1  UNL1       -0.2745
      9 C         142.9221  138.7533  166.3116 C.2     1  UNL1        0.2520
     10 O         144.0208  138.0056  167.0072 O.2     1  UNL1       -0.2698
     11 C         142.5581  140.1984  168.4398 C.3     1  UNL1        0.0928
     12 C         142.4084  139.3055  169.6358 C.3     1  UNL1        0.0383
     13 C         142.8974  140.0565  170.8389 C.3     1  UNL1        0.0704
     14 N         143.3493  141.4133  170.3862 N.3     1  UNL1       -0.2960
     15 C         143.1396  141.5010  168.9035 C.3     1  UNL1        0.0887
     16 H         144.3377  141.5395  170.6041 H       1  UNL1        0.1233
     17 O         144.5174  139.8670  164.0280 O.3     1  UNL1       -0.4533
     18 C         144.3850  141.3450  163.8086 C.ar    1  UNL1        0.1453
     19 C         144.5420  141.9157  162.4303 C.ar    1  UNL1        0.0375
     20 C         144.4097  143.3936  162.2109 C.ar    1  UNL1        0.0031
     21 C         144.1204  144.3009  163.3699 C.ar    1  UNL1        0.0002
     22 C         143.9635  143.7302  164.7482 C.ar    1  UNL1        0.0031
     23 C         144.0958  142.2523  164.9675 C.ar    1  UNL1        0.0375
@<TRIPOS>BOND
     1     7     8    1
     2     8     9   am
     3     9    10    2
     4     9     1    1
     5     1     2   ar
     6     2     3   ar
     7     3     4   ar
     8     4     5   ar
     9     5     6   ar
    10     6    17    1
    11    17    18    1
    12    18    19   ar
    13    19    20   ar
    14    20    21   ar
    15    21    22   ar
    16    22    23   ar
    17    11     8    1
    18    11    12    1
    19    12    13    1
    20    13    14    1
    21    14    15    1
    22     6     1   ar
    23    23    18   ar
    24    15    11    1
    25    14    16    1
@<TRIPOS>MOLECULE
*****
 23 25 0 0 0
SMALL
GASTEIGER

@<TRIPOS>ATOM
      1 C         140.4953  140.1679  166.9920 C.ar    1  UNL1        0.0880
      2 C         139.7346  140.4262  168.2587 C.ar    1  UNL1        0.0076
      3 C         140.3648  140.1264  169.5864 C.ar    1  UNL1        0.0003
      4 C         141.7558  139.5683  169.6474 C.ar    1  UNL1        0.0031
      5 C         142.5165  139.3100  168.3807 C.ar    1  UNL1        0.0376
      6 C         141.8863  139.6098  167.0530 C.ar    1  UNL1        0.1496
      7 C         138.7739  138.1100  165.6497 C.3     1  UNL1        0.1151
      8 N         139.0044  139.4388  164.9930 N.am    1  UNL1       -0.2745
      9 C         139.8651  140.4678  165.6642 C.2     1  UNL1        0.2520
     10 O         140.0956  141.7966  165.0075 O.2     1  UNL1       -0.2698
     11 C         138.3741  139.7386  163.6652 C.3     1  UNL1        0.0928
     12 C         138.4689  138.8893  162.4325 C.3     1  UNL1        0.0383
     13 C         137.6919  139.5661  161.3424 C.3     1  UNL1        0.0704
     14 N         137.1169  140.8338  161.9016 N.3     1  UNL1       -0.2960
     15 C         137.5386  140.9404  163.3371 C.3     1  UNL1        0.0887
     16 H         136.0990  140.8086  161.8408 H       1  UNL1        0.1233
     17 O         142.6470  139.3515  165.7862 O.3     1  UNL1       -0.4533
     18 C         143.5541  140.4075  165.2275 C.ar    1  UNL1        0.1453
     19 C         144.6041  140.0388  164.2217 C.ar    1  UNL1        0.0375
     20 C         145.5111  141.0948  163.6630 C.ar    1  UNL1        0.0031
     21 C         145.3682  142.5195  164.1102 C.ar    1  UNL1        0.0002
     22 C         144.3183  142.8881  165.1160 C.ar    1  UNL1        0.0031
     23 C         143.4112  141.8321  165.6747 C.ar    1  UNL1        0.0375
@<TRIPOS>BOND
     1     7     8    1
     2     8     9   am
     3     9    10    2
     4     9     1    1
     5     1     2   ar
     6     2     3   ar
     7     3     4   ar
     8     4     5   ar
     9     5     6   ar
    10     6    17    1
    11    17    18    1
    12    18    19   ar
    13    19    20   ar
    14    20    21   ar
    15    21    22   ar
    16    22    23   ar
    17    11     8    1
    18    11    12    1
    19    12    13    1
    20    13    14    1
    21    14    15    1
    22     6     1   ar
    23    23    18   ar
    24    15    11    1
    25    14    16    1
@<TRIPOS>MOLECULE
*****
 23 25 0 0 0
SMALL
GASTEIGER

@<TRIPOS>ATOM
      1 C         140.6528  139.4911  165.1152 C.ar    1  UNL1        0.0880
      2 C         140.4988  138.0383  164.7756 C.ar    1  UNL1        0.0076
      3 C         139.2695  137.2939  165.2053 C.ar    1  UNL1        0.0003
      4 C         138.1942  138.0024  165.9747 C.ar    1  UNL1        0.0031
      5 C         138.3482  139.4552  166.3143 C.ar    1  UNL1        0.0376
      6 C         139.5775  140.1996  165.8845 C.ar    1  UNL1        0.1496
      7 C         140.8037  140.6759  162.3632 C.3     1  UNL1        0.1151
      8 N         141.9575  140.8280  163.3095 N.am    1  UNL1       -0.2745
      9 C         141.8821  140.2356  164.6855 C.2     1  UNL1        0.2520
     10 O         143.0359  140.3877  165.6318 O.2     1  UNL1       -0.2698
     11 C         143.1869  141.5725  162.8798 C.3     1  UNL1        0.0928
     12 C         143.3027  143.0580  162.7076 C.3     1  UNL1        0.0383
     13 C         144.7036  143.3658  162.2682 C.3     1  UNL1        0.0704
     14 N         145.4534  142.0704  162.1689 N.3     1  UNL1       -0.2960
     15 C         144.5160  140.9621  162.5469 C.3     1  UNL1        0.0887
     16 H         146.2503  142.0820  162.8056 H       1  UNL1        0.1233
     17 O         139.7316  141.6526  166.2242 O.3     1  UNL1       -0.4533
     18 C         139.4002  142.7006  165.2034 C.ar    1  UNL1        0.1453
     19 C         140.3892  143.7851  164.8937 C.ar    1  UNL1        0.0375
     20 C         140.0579  144.8331  163.8729 C.ar    1  UNL1        0.0031
     21 C         138.7375  144.7966  163.1619 C.ar    1  UNL1        0.0002
     22 C         137.7486  143.7121  163.4717 C.ar    1  UNL1        0.0031
     23 C         138.0800  142.6641  164.4924 C.ar    1  UNL1        0.0375
@<TRIPOS>BOND
     1     7     8    1
     2     8     9   am
     3     9    10    2
     4     9     1    1
     5     1     2   ar
     6     2     3   ar
     7     3     4   ar
     8     4     5   ar
     9     5     6   ar
    10     6    17    1
    11    17    18    1
    12    18    19   ar
    13    19    20   ar
    14    20    21   ar
    15    21    22   ar
    16    22    23   ar
    17    11     8    1
    18    11    12    1
    19    12    13    1
    20    13    14    1
    21    14    15    1
    22     6     1   ar
    23    23    18   ar
    24    15    11    1
    25    14    16    1
@<TRIPOS>MOLECULE
*****
 23 25 0 0 0
SMALL
GASTEIGER

@<TRIPOS>ATOM
      1 C         139.5199  138.7403  165.1040 C.ar    1  UNL1        0.0880
      2 C         138.8355  137.4056  165.0939 C.ar    1  UNL1        0.0076
      3 C         137.8453  137.0625  166.1671 C.ar    1  UNL1        0.0003
      4 C         137.5395  138.0540  167.2503 C.ar    1  UNL1        0.0031
      5 C         138.2239  139.3887  167.2604 C.ar    1  UNL1        0.0376
      6 C         139.2141  139.7318  166.1872 C.ar    1  UNL1        0.1496
      7 C         142.4444  138.2373  165.5450 C.3     1  UNL1        0.1151
      8 N         141.9724  138.8320  164.2513 N.am    1  UNL1       -0.2745
      9 C         140.5102  139.0835  164.0308 C.2     1  UNL1        0.2520
     10 O         140.0382  139.6782  162.7372 O.2     1  UNL1       -0.2698
     11 C         142.9627  139.1752  163.1781 C.3     1  UNL1        0.0928
     12 C         143.5449  140.5327  162.9173 C.3     1  UNL1        0.0383
     13 C         144.4867  140.4177  161.7554 C.3     1  UNL1        0.0704
     14 N         144.4863  138.9890  161.2982 N.3     1  UNL1       -0.2960
     15 C         143.5445  138.2211  162.1775 C.3     1  UNL1        0.0887
     16 H         145.4263  138.6006  161.3754 H       1  UNL1        0.1233
     17 O         139.8986  141.0666  166.1972 O.3     1  UNL1       -0.4533
     18 C         139.3336  142.2052  165.4008 C.ar    1  UNL1        0.1453
     19 C         138.1042  141.9994  164.5663 C.ar    1  UNL1        0.0375
     20 C         137.5392  143.1381  163.7699 C.ar    1  UNL1        0.0031
     21 C         138.2035  144.4824  163.8080 C.ar    1  UNL1        0.0002
     22 C         139.4328  144.6881  164.6425 C.ar    1  UNL1        0.0031
     23 C         139.9979  143.5495  165.4389 C.ar    1  UNL1        0.0375
@<TRIPOS>BOND
     1     7     8    1
     2     8     9   am
     3     9    10    2
     4     9     1    1
     5     1     2   ar
     6     2     3   ar
     7     3     4   ar
     8     4     5   ar
     9     5     6   ar
    10     6    17    1
    11    17    18    1
    12    18    19   ar
    13    19    20   ar
    14    20    21   ar
    15    21    22   ar
    16    22    23   ar
    17    11     8    1
    18    11    12    1
    19    12    13    1
    20    13    14    1
    21    14    15    1
    22     6     1   ar
    23    23    18   ar
    24    15    11    1
    25    14    16    1
@<TRIPOS>MOLECULE
*****
 23 25 0 0 0
SMALL
GASTEIGER

@<TRIPOS>ATOM
      1 C         140.9202  139.7585  165.8339 C.ar    1  UNL1        0.0880
      2 C         141.8076  138.6054  165.4698 C.ar    1  UNL1        0.0076
      3 C         141.3038  137.5324  164.5506 C.ar    1  UNL1        0.0003
      4 C         139.9126  137.6127  163.9956 C.ar    1  UNL1        0.0031
      5 C         139.0251  138.7658  164.3597 C.ar    1  UNL1        0.0376
      6 C         139.5289  139.8388  165.2789 C.ar    1  UNL1        0.1496
      7 C         139.9615  139.8724  168.6744 C.3     1  UNL1        0.1151
      8 N         140.9446  140.8885  168.1733 N.am    1  UNL1       -0.2745
      9 C         141.4240  140.8316  166.7532 C.2     1  UNL1        0.2520
     10 O         142.4071  141.8476  166.2521 O.2     1  UNL1       -0.2698
     11 C         141.4484  141.9615  169.0926 C.3     1  UNL1        0.0928
     12 C         142.7957  141.9972  169.7511 C.3     1  UNL1        0.0383
     13 C         142.8734  143.2450  170.5802 C.3     1  UNL1        0.0704
     14 N         141.5741  143.9803  170.4339 N.3     1  UNL1       -0.2960
     15 C         140.6935  143.1870  169.5146 C.3     1  UNL1        0.0887
     16 H         141.7425  144.9055  170.0390 H       1  UNL1        0.1233
     17 O         138.6415  140.9920  165.6431 O.3     1  UNL1       -0.4533
     18 C         138.6041  142.2134  164.7732 C.ar    1  UNL1        0.1453
     19 C         139.2834  143.4739  165.2205 C.ar    1  UNL1        0.0375
     20 C         139.2460  144.6953  164.3506 C.ar    1  UNL1        0.0031
     21 C         138.5292  144.6563  163.0334 C.ar    1  UNL1        0.0002
     22 C         137.8500  143.3959  162.5862 C.ar    1  UNL1        0.0031
     23 C         137.8874  142.1745  163.4561 C.ar    1  UNL1        0.0375
@<TRIPOS>BOND
     1     7     8    1
     2     8     9   am
     3     9    10    2
     4     9     1    1
     5     1     2   ar
     6     2     3   ar
     7     3     4   ar
     8     4     5   ar
     9     5     6   ar
    10     6    17    1
    11    17    18    1
    12    18    19   ar
    13    19    20   ar
    14    20    21   ar
    15    21    22   ar
    16    22    23   ar
    17    11     8    1
    18    11    12    1
    19    12    13    1
    20    13    14    1
    21    14    15    1
    22     6     1   ar
    23    23    18   ar
    24    15    11    1
    25    14    16    1
