@<TRIPOS>MOLECULE
*****
 38 42 0 0 0
SMALL
GASTEIGER

@<TRIPOS>ATOM
      1 C         138.8793  139.1568  159.9010 C.3     1  UNL1        0.2358
      2 C         140.3745  139.2507  159.9762 C.3     1  UNL1        0.1700
      3 O         141.1079  140.2395  159.1192 O.3     1  UNL1       -0.3793
      4 H         140.4716  140.7346  158.5799 H       1  UNL1        0.2106
      5 C         141.1363  138.3559  160.9084 C.3     1  UNL1        0.1056
      6 N         141.4306  138.8075  162.3083 N.3     1  UNL1       -0.2703
      7 C         141.4120  137.8177  163.4352 C.3     1  UNL1        0.0758
      8 C         141.7064  138.2693  164.8349 C.3     1  UNL1        0.0577
      9 C         142.0193  139.7107  165.1078 C.3     1  UNL1        0.1399
     10 C         142.0379  140.7005  163.9809 C.3     1  UNL1        0.0577
     11 C         141.7436  140.2489  162.5811 C.3     1  UNL1        0.0758
     12 C         142.3472  141.1118  165.5316 C.3     1  UNL1        0.0695
     13 C         142.5680  141.1075  167.0154 C.ar    1  UNL1        0.0161
     14 C         142.9186  142.2004  167.9811 C.ar    1  UNL1        0.0102
     15 C         143.0778  141.8897  169.4399 C.ar    1  UNL1        0.0576
     16 CL        143.4285  142.9826  170.4056 Cl      1  UNL1       -0.0823
     17 C         142.8865  140.4861  169.9330 C.ar    1  UNL1        0.0145
     18 C         142.5358  139.3931  168.9673 C.ar    1  UNL1        0.0374
     19 C         142.3766  139.7038  167.5085 C.ar    1  UNL1        0.1343
     20 O         142.0375  138.8406  166.3296 O.3     1  UNL1       -0.4825
     21 O         138.0315  140.3031  160.3669 O.3     1  UNL1       -0.4714
     22 C         138.2850  142.2485  162.0702 C.ar    1  UNL1        0.0861
     23 C         138.3870  142.7292  163.4874 C.ar    1  UNL1        0.0209
     24 C         138.3373  141.7454  164.6186 C.ar    1  UNL1        0.0381
     25 C         138.1857  140.2807  164.3325 C.ar    1  UNL1        0.1368
     26 O         138.1360  139.2968  165.4637 O.3     1  UNL1       -0.5054
     27 C         138.0837  139.7999  162.9153 C.ar    1  UNL1        0.0747
     28 C         138.1334  140.7838  161.7841 C.ar    1  UNL1        0.1550
     29 H         138.1997  139.5972  166.3490 H       1  UNL1        0.2922
     30 O         140.8890  142.8245  160.6964 O.2     1  UNL1       -0.2525
     31 C         139.6367  143.5204  160.2522 C.2     1  UNL1        0.3045
     32 N         138.3347  143.2324  160.9391 N.am    1  UNL1       -0.2658
     33 N         139.6863  144.5043  159.1210 N.am    1  UNL1       -0.2903
     34 H         137.5127  143.6891  160.6475 H       1  UNL1        0.1565
     35 H         138.8644  144.9610  158.8295 H       1  UNL1        0.1509
     36 C         140.9883  144.7923  158.4341 C.3     1  UNL1        0.0732
     37 C         142.3304  144.3313  157.9481 C.3     1  UNL1        0.0213
     38 C         141.9013  145.7520  157.7305 C.3     1  UNL1        0.0213
@<TRIPOS>BOND
     1    30    31    2
     2    31    32   am
     3    32    22    1
     4    22    23   ar
     5    23    24   ar
     6    24    25   ar
     7    25    26    1
     8    25    27   ar
     9    27    28   ar
    10    28    21    1
    11    21     1    1
    12     1     2    1
    13     2     3    1
    14     2     5    1
    15     5     6    1
    16     6     7    1
    17     7     8    1
    18     8     9    1
    19     9    10    1
    20    10    11    1
    21     9    12    1
    22    12    13    1
    23    13    14   ar
    24    14    15   ar
    25    15    16    1
    26    15    17   ar
    27    17    18   ar
    28    18    19   ar
    29    19    20    1
    30    31    33   am
    31    33    36    1
    32    36    37    1
    33    37    38    1
    34    28    22   ar
    35    11     6    1
    36    19    13   ar
    37    38    36    1
    38    20     9    1
    39    32    34    1
    40    26    29    1
    41     3     4    1
    42    33    35    1
@<TRIPOS>MOLECULE
*****
 38 42 0 0 0
SMALL
GASTEIGER

@<TRIPOS>ATOM
      1 C         138.9338  141.7234  158.0443 C.3     1  UNL1        0.2358
      2 C         138.4787  141.6723  159.4727 C.3     1  UNL1        0.1700
      3 O         138.0726  142.9335  160.1760 O.3     1  UNL1       -0.3793
      4 H         138.1626  143.6852  159.5696 H       1  UNL1        0.2106
      5 C         138.4297  140.3602  160.1978 C.3     1  UNL1        0.1056
      6 N         138.8772  140.2758  161.6270 N.3     1  UNL1       -0.2703
      7 C         140.3257  140.0544  161.9475 C.3     1  UNL1        0.0758
      8 C         140.7731  139.9701  163.3767 C.3     1  UNL1        0.0577
      9 C         139.7720  140.1071  164.4854 C.3     1  UNL1        0.1399
     10 C         138.3235  140.3284  164.1648 C.3     1  UNL1        0.0577
     11 C         137.8761  140.4128  162.7357 C.3     1  UNL1        0.0758
     12 C         138.8909  140.2248  165.6936 C.3     1  UNL1        0.0695
     13 C         139.7535  140.0807  166.9123 C.ar    1  UNL1        0.0161
     14 C         139.4339  140.1110  168.3775 C.ar    1  UNL1        0.0102
     15 C         140.5286  139.9345  169.3878 C.ar    1  UNL1        0.0576
     16 CL        140.2090  139.9649  170.8530 Cl      1  UNL1       -0.0823
     17 C         141.9428  139.7277  168.9328 C.ar    1  UNL1        0.0145
     18 C         142.2625  139.6973  167.4675 C.ar    1  UNL1        0.0374
     19 C         141.1678  139.8738  166.4573 C.ar    1  UNL1        0.1343
     20 O         141.1793  139.8901  164.9574 O.3     1  UNL1       -0.4825
     21 O         140.0224  142.6718  157.6374 O.3     1  UNL1       -0.4714
     22 C         140.3976  145.2337  157.4232 C.ar    1  UNL1        0.0861
     23 C         140.0492  146.5493  156.7926 C.ar    1  UNL1        0.0209
     24 C         138.9772  146.6188  155.7457 C.ar    1  UNL1        0.0381
     25 C         138.2536  145.3726  155.3294 C.ar    1  UNL1        0.1368
     26 O         137.1816  145.4420  154.2825 O.3     1  UNL1       -0.5054
     27 C         138.6020  144.0568  155.9600 C.ar    1  UNL1        0.0747
     28 C         139.6740  143.9874  157.0069 C.ar    1  UNL1        0.1550
     29 H         136.9639  146.2639  153.8886 H       1  UNL1        0.2922
     30 O         139.6532  145.1199  160.3271 O.2     1  UNL1       -0.2525
     31 C         141.0974  145.1074  159.9220 C.2     1  UNL1        0.3045
     32 N         141.4696  145.1642  158.4701 N.am    1  UNL1       -0.2658
     33 N         142.1694  145.0379  160.9689 N.am    1  UNL1       -0.2903
     34 H         142.4175  145.1560  158.2042 H       1  UNL1        0.1565
     35 H         143.1173  145.0297  160.7030 H       1  UNL1        0.1509
     36 C         141.7972  144.9810  162.4209 C.3     1  UNL1        0.0732
     37 C         140.8734  144.5175  163.5079 C.3     1  UNL1        0.0213
     38 C         142.0764  145.3460  163.8487 C.3     1  UNL1        0.0213
@<TRIPOS>BOND
     1    30    31    2
     2    31    32   am
     3    32    22    1
     4    22    23   ar
     5    23    24   ar
     6    24    25   ar
     7    25    26    1
     8    25    27   ar
     9    27    28   ar
    10    28    21    1
    11    21     1    1
    12     1     2    1
    13     2     3    1
    14     2     5    1
    15     5     6    1
    16     6     7    1
    17     7     8    1
    18     8     9    1
    19     9    10    1
    20    10    11    1
    21     9    12    1
    22    12    13    1
    23    13    14   ar
    24    14    15   ar
    25    15    16    1
    26    15    17   ar
    27    17    18   ar
    28    18    19   ar
    29    19    20    1
    30    31    33   am
    31    33    36    1
    32    36    37    1
    33    37    38    1
    34    28    22   ar
    35    11     6    1
    36    19    13   ar
    37    38    36    1
    38    20     9    1
    39    32    34    1
    40    26    29    1
    41     3     4    1
    42    33    35    1
@<TRIPOS>MOLECULE
*****
 38 42 0 0 0
SMALL
GASTEIGER

@<TRIPOS>ATOM
      1 C         141.6178  140.2115  159.3657 C.3     1  UNL1        0.2358
      2 C         142.7171  139.3421  159.9004 C.3     1  UNL1        0.1700
      3 O         144.0932  139.4246  159.3093 O.3     1  UNL1       -0.3793
      4 H         144.1004  140.0834  158.5974 H       1  UNL1        0.2106
      5 C         142.4401  138.3902  161.0261 C.3     1  UNL1        0.1056
      6 N         142.5084  138.8681  162.4463 N.3     1  UNL1       -0.2703
      7 C         142.1920  137.9267  163.5704 C.3     1  UNL1        0.0758
      8 C         142.2602  138.4046  164.9906 C.3     1  UNL1        0.0577
      9 C         142.6449  139.8239  165.2867 C.3     1  UNL1        0.1399
     10 C         142.9613  140.7653  164.1626 C.3     1  UNL1        0.0577
     11 C         142.8930  140.2874  162.7424 C.3     1  UNL1        0.0758
     12 C         143.0124  141.2074  165.7347 C.3     1  UNL1        0.0695
     13 C         142.9522  141.2407  167.2332 C.ar    1  UNL1        0.0161
     14 C         143.2137  142.3360  168.2241 C.ar    1  UNL1        0.0102
     15 C         143.0704  142.0684  169.6930 C.ar    1  UNL1        0.0576
     16 CL        143.3319  143.1637  170.6839 Cl      1  UNL1       -0.0823
     17 C         142.6657  140.7055  170.1711 C.ar    1  UNL1        0.0145
     18 C         142.4042  139.6101  169.1802 C.ar    1  UNL1        0.0374
     19 C         142.5475  139.8777  167.7112 C.ar    1  UNL1        0.1343
     20 O         142.3575  139.0021  166.5083 O.3     1  UNL1       -0.4825
     21 O         140.4729  140.6031  160.2521 O.3     1  UNL1       -0.4714
     22 C         139.2582  142.4063  161.6744 C.ar    1  UNL1        0.0861
     23 C         139.0712  143.8417  162.0678 C.ar    1  UNL1        0.0209
     24 C         139.9118  144.9092  161.4323 C.ar    1  UNL1        0.0381
     25 C         140.9394  144.5413  160.4034 C.ar    1  UNL1        0.1368
     26 O         141.7800  145.6088  159.7679 O.3     1  UNL1       -0.5054
     27 C         141.1265  143.1059  160.0100 C.ar    1  UNL1        0.0747
     28 C         140.2859  142.0384  160.6455 C.ar    1  UNL1        0.1550
     29 H         141.6631  146.5054  160.0136 H       1  UNL1        0.2922
     30 O         139.7845  141.5705  164.5071 O.2     1  UNL1       -0.2525
     31 C         138.6807  140.9209  163.7262 C.2     1  UNL1        0.3045
     32 N         138.4176  141.3388  162.3099 N.am    1  UNL1       -0.2658
     33 N         137.8401  139.8534  164.3617 N.am    1  UNL1       -0.2903
     34 H         137.6932  140.9125  161.7974 H       1  UNL1        0.1565
     35 H         137.1157  139.4271  163.8492 H       1  UNL1        0.1509
     36 C         138.1033  139.4355  165.7781 C.3     1  UNL1        0.0732
     37 C         138.9226  139.5342  167.0307 C.3     1  UNL1        0.0213
     38 C         137.7398  138.6131  166.9787 C.3     1  UNL1        0.0213
@<TRIPOS>BOND
     1    30    31    2
     2    31    32   am
     3    32    22    1
     4    22    23   ar
     5    23    24   ar
     6    24    25   ar
     7    25    26    1
     8    25    27   ar
     9    27    28   ar
    10    28    21    1
    11    21     1    1
    12     1     2    1
    13     2     3    1
    14     2     5    1
    15     5     6    1
    16     6     7    1
    17     7     8    1
    18     8     9    1
    19     9    10    1
    20    10    11    1
    21     9    12    1
    22    12    13    1
    23    13    14   ar
    24    14    15   ar
    25    15    16    1
    26    15    17   ar
    27    17    18   ar
    28    18    19   ar
    29    19    20    1
    30    31    33   am
    31    33    36    1
    32    36    37    1
    33    37    38    1
    34    28    22   ar
    35    11     6    1
    36    19    13   ar
    37    38    36    1
    38    20     9    1
    39    32    34    1
    40    26    29    1
    41     3     4    1
    42    33    35    1
@<TRIPOS>MOLECULE
*****
 38 42 0 0 0
SMALL
GASTEIGER

@<TRIPOS>ATOM
      1 C         138.4841  142.5174  159.7872 C.3     1  UNL1        0.2358
      2 C         139.2257  141.2363  160.0299 C.3     1  UNL1        0.1700
      3 O         140.3256  140.8186  159.0994 O.3     1  UNL1       -0.3793
      4 H         140.4277  141.4834  158.4005 H       1  UNL1        0.2106
      5 C         138.8674  140.3729  161.2030 C.3     1  UNL1        0.1056
      6 N         139.4119  140.6927  162.5637 N.3     1  UNL1       -0.2703
      7 C         138.4985  140.7038  163.7534 C.3     1  UNL1        0.0758
      8 C         139.0430  141.0236  165.1140 C.3     1  UNL1        0.0577
      9 C         140.5009  141.3322  165.2848 C.3     1  UNL1        0.1399
     10 C         141.4143  141.3211  164.0951 C.3     1  UNL1        0.0577
     11 C         140.8698  141.0014  162.7345 C.3     1  UNL1        0.0758
     12 C         141.9286  141.6592  165.6087 C.3     1  UNL1        0.0695
     13 C         142.0234  141.9102  167.0846 C.ar    1  UNL1        0.0161
     14 C         143.1795  142.2730  167.9687 C.ar    1  UNL1        0.0102
     15 C         142.9665  142.4641  169.4412 C.ar    1  UNL1        0.0576
     16 CL        144.1225  142.8269  170.3254 Cl      1  UNL1       -0.0823
     17 C         141.5974  142.2923  170.0295 C.ar    1  UNL1        0.0145
     18 C         140.4412  141.9295  169.1453 C.ar    1  UNL1        0.0374
     19 C         140.6542  141.7384  167.6728 C.ar    1  UNL1        0.1343
     20 O         139.7133  141.3812  166.5606 O.3     1  UNL1       -0.4825
     21 O         139.1934  143.8320  159.9236 O.3     1  UNL1       -0.4714
     22 C         141.1836  144.7465  161.3212 C.ar    1  UNL1        0.0861
     23 C         141.7649  145.1514  162.6433 C.ar    1  UNL1        0.0209
     24 C         140.9375  145.0466  163.8901 C.ar    1  UNL1        0.0381
     25 C         139.5288  144.5369  163.8147 C.ar    1  UNL1        0.1368
     26 O         138.7014  144.4322  165.0615 O.3     1  UNL1       -0.5054
     27 C         138.9474  144.1321  162.4926 C.ar    1  UNL1        0.0747
     28 C         139.7748  144.2369  161.2458 C.ar    1  UNL1        0.1550
     29 H         139.0646  144.6851  165.8874 H       1  UNL1        0.2922
     30 O         142.6184  142.3326  160.2658 O.2     1  UNL1       -0.2525
     31 C         142.7284  143.6443  159.5467 C.2     1  UNL1        0.3045
     32 N         142.0109  144.8513  160.0744 N.am    1  UNL1       -0.2658
     33 N         143.5557  143.7491  158.3000 N.am    1  UNL1       -0.2903
     34 H         142.0831  145.7123  159.6024 H       1  UNL1        0.1565
     35 H         143.6279  144.6101  157.8280 H       1  UNL1        0.1509
     36 C         144.2732  142.5422  157.7723 C.3     1  UNL1        0.0732
     37 C         144.2646  141.0948  157.3787 C.3     1  UNL1        0.0213
     38 C         145.5244  141.8990  157.2519 C.3     1  UNL1        0.0213
@<TRIPOS>BOND
     1    30    31    2
     2    31    32   am
     3    32    22    1
     4    22    23   ar
     5    23    24   ar
     6    24    25   ar
     7    25    26    1
     8    25    27   ar
     9    27    28   ar
    10    28    21    1
    11    21     1    1
    12     1     2    1
    13     2     3    1
    14     2     5    1
    15     5     6    1
    16     6     7    1
    17     7     8    1
    18     8     9    1
    19     9    10    1
    20    10    11    1
    21     9    12    1
    22    12    13    1
    23    13    14   ar
    24    14    15   ar
    25    15    16    1
    26    15    17   ar
    27    17    18   ar
    28    18    19   ar
    29    19    20    1
    30    31    33   am
    31    33    36    1
    32    36    37    1
    33    37    38    1
    34    28    22   ar
    35    11     6    1
    36    19    13   ar
    37    38    36    1
    38    20     9    1
    39    32    34    1
    40    26    29    1
    41     3     4    1
    42    33    35    1
@<TRIPOS>MOLECULE
*****
 38 42 0 0 0
SMALL
GASTEIGER

@<TRIPOS>ATOM
      1 C         140.0907  143.7366  159.8398 C.3     1  UNL1        0.2358
      2 C         140.8486  144.9411  160.3142 C.3     1  UNL1        0.1700
      3 O         141.8657  145.5870  159.4207 O.3     1  UNL1       -0.3793
      4 H         141.9094  145.1057  158.5797 H       1  UNL1        0.2106
      5 C         140.5893  145.4996  161.6819 C.3     1  UNL1        0.1056
      6 N         140.7287  144.6208  162.8897 N.3     1  UNL1       -0.2703
      7 C         141.9228  143.7242  163.0310 C.3     1  UNL1        0.0758
      8 C         142.0621  142.8455  164.2387 C.3     1  UNL1        0.0577
      9 C         141.0072  142.8635  165.3050 C.3     1  UNL1        0.1399
     10 C         139.8131  143.7601  165.1636 C.3     1  UNL1        0.0577
     11 C         139.6738  144.6388  163.9559 C.3     1  UNL1        0.0758
     12 C         140.0386  142.7742  166.4468 C.3     1  UNL1        0.0695
     13 C         140.5723  141.7753  167.4305 C.ar    1  UNL1        0.0161
     14 C         140.0438  141.2784  168.7433 C.ar    1  UNL1        0.0102
     15 C         140.8136  140.2534  169.5222 C.ar    1  UNL1        0.0576
     16 CL        140.2851  139.7564  170.8351 Cl      1  UNL1       -0.0823
     17 C         142.1121  139.7253  168.9883 C.ar    1  UNL1        0.0145
     18 C         142.6407  140.2222  167.6754 C.ar    1  UNL1        0.0374
     19 C         141.8709  141.2472  166.8965 C.ar    1  UNL1        0.1343
     20 O         142.1396  141.9197  165.5829 O.3     1  UNL1       -0.4825
     21 O         140.6207  142.3607  160.1149 O.3     1  UNL1       -0.4714
     22 C         140.3838  140.0492  161.2773 C.ar    1  UNL1        0.0861
     23 C         139.6286  139.1217  162.1824 C.ar    1  UNL1        0.0209
     24 C         138.3551  139.5781  162.8304 C.ar    1  UNL1        0.0381
     25 C         137.8368  140.9620  162.5733 C.ar    1  UNL1        0.1368
     26 O         136.5633  141.4184  163.2213 O.3     1  UNL1       -0.5054
     27 C         138.5920  141.8896  161.6681 C.ar    1  UNL1        0.0747
     28 C         139.8655  141.4332  161.0201 C.ar    1  UNL1        0.1550
     29 H         136.0916  140.8390  163.7868 H       1  UNL1        0.2922
     30 O         140.2847  138.3582  158.8013 O.2     1  UNL1       -0.2525
     31 C         141.6077  138.7473  159.3913 C.2     1  UNL1        0.3045
     32 N         141.6573  139.5928  160.6292 N.am    1  UNL1       -0.2658
     33 N         142.8812  138.2909  158.7432 N.am    1  UNL1       -0.2903
     34 H         142.5257  139.8482  161.0165 H       1  UNL1        0.1565
     35 H         143.7496  138.5463  159.1305 H       1  UNL1        0.1509
     36 C         142.8317  137.4454  157.5053 C.3     1  UNL1        0.0732
     37 C         142.6116  137.3183  156.0270 C.3     1  UNL1        0.0213
     38 C         142.9659  136.1081  156.8393 C.3     1  UNL1        0.0213
@<TRIPOS>BOND
     1    30    31    2
     2    31    32   am
     3    32    22    1
     4    22    23   ar
     5    23    24   ar
     6    24    25   ar
     7    25    26    1
     8    25    27   ar
     9    27    28   ar
    10    28    21    1
    11    21     1    1
    12     1     2    1
    13     2     3    1
    14     2     5    1
    15     5     6    1
    16     6     7    1
    17     7     8    1
    18     8     9    1
    19     9    10    1
    20    10    11    1
    21     9    12    1
    22    12    13    1
    23    13    14   ar
    24    14    15   ar
    25    15    16    1
    26    15    17   ar
    27    17    18   ar
    28    18    19   ar
    29    19    20    1
    30    31    33   am
    31    33    36    1
    32    36    37    1
    33    37    38    1
    34    28    22   ar
    35    11     6    1
    36    19    13   ar
    37    38    36    1
    38    20     9    1
    39    32    34    1
    40    26    29    1
    41     3     4    1
    42    33    35    1
@<TRIPOS>MOLECULE
*****
 38 42 0 0 0
SMALL
GASTEIGER

@<TRIPOS>ATOM
      1 C         143.8283  143.5370  161.7329 C.3     1  UNL1        0.2358
      2 C         144.9853  142.5840  161.6748 C.3     1  UNL1        0.1700
      3 O         145.8310  142.5058  160.4384 O.3     1  UNL1       -0.3793
      4 H         145.4965  143.1322  159.7777 H       1  UNL1        0.2106
      5 C         145.2964  141.7094  162.8529 C.3     1  UNL1        0.1056
      6 N         144.3303  141.6204  163.9970 N.3     1  UNL1       -0.2703
      7 C         144.3363  142.6714  165.0671 C.3     1  UNL1        0.0758
      8 C         143.3702  142.5824  166.2111 C.3     1  UNL1        0.0577
      9 C         142.3981  141.4424  166.2849 C.3     1  UNL1        0.1399
     10 C         142.3921  140.3914  165.2147 C.3     1  UNL1        0.0577
     11 C         143.3582  140.4804  164.0707 C.3     1  UNL1        0.0758
     12 C         141.3734  140.3667  166.4919 C.3     1  UNL1        0.0695
     13 C         140.6290  140.6730  167.7577 C.ar    1  UNL1        0.0161
     14 C         139.5100  139.9635  168.4608 C.ar    1  UNL1        0.0102
     15 C         138.9557  140.5189  169.7391 C.ar    1  UNL1        0.0576
     16 CL        137.8366  139.8094  170.4422 Cl      1  UNL1       -0.0823
     17 C         139.5203  141.7838  170.3145 C.ar    1  UNL1        0.0145
     18 C         140.6394  142.4934  169.6114 C.ar    1  UNL1        0.0374
     19 C         141.1937  141.9380  168.3330 C.ar    1  UNL1        0.1343
     20 O         142.2871  142.4135  167.4228 O.3     1  UNL1       -0.4825
     21 O         142.4503  143.0665  161.3729 O.3     1  UNL1       -0.4714
     22 C         140.6701  144.9387  161.6490 C.ar    1  UNL1        0.0861
     23 C         139.4758  145.5006  162.3616 C.ar    1  UNL1        0.0209
     24 C         138.8672  144.7525  163.5104 C.ar    1  UNL1        0.0381
     25 C         139.4529  143.4424  163.9467 C.ar    1  UNL1        0.1368
     26 O         138.8443  142.6942  165.0956 O.3     1  UNL1       -0.5054
     27 C         140.6473  142.8803  163.2342 C.ar    1  UNL1        0.0747
     28 C         141.2559  143.6285  162.0854 C.ar    1  UNL1        0.1550
     29 H         138.0982  143.0452  165.5407 H       1  UNL1        0.2922
     30 O         139.7104  144.4322  158.8523 O.2     1  UNL1       -0.2525
     31 C         140.7988  145.4336  159.1018 C.2     1  UNL1        0.3045
     32 N         141.2787  145.6869  160.5002 N.am    1  UNL1       -0.2658
     33 N         141.4074  146.1818  157.9530 N.am    1  UNL1       -0.2903
     34 H         141.9931  146.3441  160.6640 H       1  UNL1        0.1565
     35 H         142.1219  146.8390  158.1168 H       1  UNL1        0.1509
     36 C         140.9276  145.9285  156.5546 C.3     1  UNL1        0.0732
     37 C         140.1875  146.3853  155.3324 C.3     1  UNL1        0.0213
     38 C         140.8364  145.0331  155.3546 C.3     1  UNL1        0.0213
@<TRIPOS>BOND
     1    30    31    2
     2    31    32   am
     3    32    22    1
     4    22    23   ar
     5    23    24   ar
     6    24    25   ar
     7    25    26    1
     8    25    27   ar
     9    27    28   ar
    10    28    21    1
    11    21     1    1
    12     1     2    1
    13     2     3    1
    14     2     5    1
    15     5     6    1
    16     6     7    1
    17     7     8    1
    18     8     9    1
    19     9    10    1
    20    10    11    1
    21     9    12    1
    22    12    13    1
    23    13    14   ar
    24    14    15   ar
    25    15    16    1
    26    15    17   ar
    27    17    18   ar
    28    18    19   ar
    29    19    20    1
    30    31    33   am
    31    33    36    1
    32    36    37    1
    33    37    38    1
    34    28    22   ar
    35    11     6    1
    36    19    13   ar
    37    38    36    1
    38    20     9    1
    39    32    34    1
    40    26    29    1
    41     3     4    1
    42    33    35    1
@<TRIPOS>MOLECULE
*****
 38 42 0 0 0
SMALL
GASTEIGER

@<TRIPOS>ATOM
      1 C         139.0540  139.4573  159.7313 C.3     1  UNL1        0.2358
      2 C         137.9205  139.1065  160.6491 C.3     1  UNL1        0.1700
      3 O         136.5197  139.5141  160.3006 O.3     1  UNL1       -0.3793
      4 H         136.5226  139.9924  159.4567 H       1  UNL1        0.2106
      5 C         138.1880  138.3483  161.9154 C.3     1  UNL1        0.1056
      6 N         138.8404  139.0360  163.0779 N.3     1  UNL1       -0.2703
      7 C         138.0813  140.0635  163.8639 C.3     1  UNL1        0.0758
      8 C         138.7337  140.7511  165.0264 C.3     1  UNL1        0.0577
      9 C         140.1454  140.4113  165.4028 C.3     1  UNL1        0.1399
     10 C         140.9046  139.3838  164.6168 C.3     1  UNL1        0.0577
     11 C         140.2521  138.6961  163.4544 C.3     1  UNL1        0.0758
     12 C         141.5429  140.1768  165.8948 C.3     1  UNL1        0.0695
     13 C         141.7762  141.0749  167.0735 C.ar    1  UNL1        0.0161
     14 C         142.9679  141.2757  167.9620 C.ar    1  UNL1        0.0102
     15 C         142.9063  142.2660  169.0870 C.ar    1  UNL1        0.0576
     16 CL        144.0980  142.4668  169.9755 Cl      1  UNL1       -0.0823
     17 C         141.6530  143.0554  169.3235 C.ar    1  UNL1        0.0145
     18 C         140.4612  142.8546  168.4349 C.ar    1  UNL1        0.0374
     19 C         140.5228  141.8643  167.3100 C.ar    1  UNL1        0.1343
     20 O         139.5150  141.4543  166.2775 O.3     1  UNL1       -0.4825
     21 O         139.3994  140.8955  159.4817 O.3     1  UNL1       -0.4714
     22 C         141.2702  142.6855  159.6965 C.ar    1  UNL1        0.0861
     23 C         142.7033  143.0937  159.5249 C.ar    1  UNL1        0.0209
     24 C         143.6988  142.1202  158.9669 C.ar    1  UNL1        0.0381
     25 C         143.2612  140.7385  158.5806 C.ar    1  UNL1        0.1368
     26 O         144.2567  139.7650  158.0227 O.3     1  UNL1       -0.5054
     27 C         141.8280  140.3302  158.7522 C.ar    1  UNL1        0.0747
     28 C         140.8325  141.3037  159.3101 C.ar    1  UNL1        0.1550
     29 H         145.1519  140.0200  157.9155 H       1  UNL1        0.2922
     30 O         140.5734  142.6124  162.6134 O.2     1  UNL1       -0.2525
     31 C         139.9263  143.6224  161.7129 C.2     1  UNL1        0.3045
     32 N         140.2747  143.6590  160.2544 N.am    1  UNL1       -0.2658
     33 N         138.9308  144.5959  162.2708 N.am    1  UNL1       -0.2903
     34 H         139.8499  144.3219  159.6633 H       1  UNL1        0.1565
     35 H         138.5060  145.2588  161.6797 H       1  UNL1        0.1509
     36 C         138.5824  144.5594  163.7293 C.3     1  UNL1        0.0732
     37 C         138.9542  144.8118  165.1604 C.3     1  UNL1        0.0213
     38 C         137.6072  144.2438  164.8244 C.3     1  UNL1        0.0213
@<TRIPOS>BOND
     1    30    31    2
     2    31    32   am
     3    32    22    1
     4    22    23   ar
     5    23    24   ar
     6    24    25   ar
     7    25    26    1
     8    25    27   ar
     9    27    28   ar
    10    28    21    1
    11    21     1    1
    12     1     2    1
    13     2     3    1
    14     2     5    1
    15     5     6    1
    16     6     7    1
    17     7     8    1
    18     8     9    1
    19     9    10    1
    20    10    11    1
    21     9    12    1
    22    12    13    1
    23    13    14   ar
    24    14    15   ar
    25    15    16    1
    26    15    17   ar
    27    17    18   ar
    28    18    19   ar
    29    19    20    1
    30    31    33   am
    31    33    36    1
    32    36    37    1
    33    37    38    1
    34    28    22   ar
    35    11     6    1
    36    19    13   ar
    37    38    36    1
    38    20     9    1
    39    32    34    1
    40    26    29    1
    41     3     4    1
    42    33    35    1
@<TRIPOS>MOLECULE
*****
 38 42 0 0 0
SMALL
GASTEIGER

@<TRIPOS>ATOM
      1 C         138.4452  142.5805  159.4741 C.3     1  UNL1        0.2358
      2 C         139.1272  141.2468  159.3945 C.3     1  UNL1        0.1700
      3 O         140.2515  141.0361  158.4241 O.3     1  UNL1       -0.3793
      4 H         140.4095  141.8554  157.9294 H       1  UNL1        0.2106
      5 C         138.6849  140.1239  160.2852 C.3     1  UNL1        0.1056
      6 N         139.0882  140.1092  161.7300 N.3     1  UNL1       -0.2703
      7 C         140.5398  140.1620  162.1041 C.3     1  UNL1        0.0758
      8 C         140.9430  140.1474  163.5488 C.3     1  UNL1        0.0577
      9 C         139.8945  140.0799  164.6194 C.3     1  UNL1        0.1399
     10 C         138.4429  140.0271  164.2453 C.3     1  UNL1        0.0577
     11 C         138.0397  140.0418  162.8006 C.3     1  UNL1        0.0758
     12 C         138.9638  140.0151  165.7939 C.3     1  UNL1        0.0695
     13 C         139.7933  140.0227  167.0437 C.ar    1  UNL1        0.0161
     14 C         139.4208  139.9753  168.4959 C.ar    1  UNL1        0.0102
     15 C         140.4917  139.9973  169.5460 C.ar    1  UNL1        0.0576
     16 CL        140.1192  139.9499  170.9982 Cl      1  UNL1       -0.0823
     17 C         141.9351  140.0667  169.1439 C.ar    1  UNL1        0.0145
     18 C         142.3077  140.1141  167.6917 C.ar    1  UNL1        0.0374
     19 C         141.2368  140.0921  166.6416 C.ar    1  UNL1        0.1343
     20 O         141.2993  140.1275  165.1433 O.3     1  UNL1       -0.4825
     21 O         139.2249  143.7991  159.8702 O.3     1  UNL1       -0.4714
     22 C         141.2538  144.2802  161.4202 C.ar    1  UNL1        0.0861
     23 C         141.8424  144.3793  162.7963 C.ar    1  UNL1        0.0209
     24 C         140.9910  144.0965  163.9984 C.ar    1  UNL1        0.0381
     25 C         139.5510  143.7146  163.8245 C.ar    1  UNL1        0.1368
     26 O         138.6996  143.4318  165.0267 O.3     1  UNL1       -0.5054
     27 C         138.9622  143.6154  162.4484 C.ar    1  UNL1        0.0747
     28 C         139.8136  143.8982  161.2462 C.ar    1  UNL1        0.1550
     29 H         139.0673  143.4938  165.8863 H       1  UNL1        0.2922
     30 O         142.5402  142.0182  159.9276 O.2     1  UNL1       -0.2525
     31 C         142.7484  143.4320  159.4717 C.2     1  UNL1        0.3045
     32 N         142.1051  144.5630  160.2181 N.am    1  UNL1       -0.2658
     33 N         143.5998  143.7147  158.2696 N.am    1  UNL1       -0.2903
     34 H         142.2418  145.4909  159.9189 H       1  UNL1        0.1565
     35 H         143.7364  144.6427  157.9704 H       1  UNL1        0.1509
     36 C         144.2430  142.5837  157.5233 C.3     1  UNL1        0.0732
     37 C         144.1230  141.3515  156.6763 C.3     1  UNL1        0.0213
     38 C         145.4770  141.8569  157.0775 C.3     1  UNL1        0.0213
@<TRIPOS>BOND
     1    30    31    2
     2    31    32   am
     3    32    22    1
     4    22    23   ar
     5    23    24   ar
     6    24    25   ar
     7    25    26    1
     8    25    27   ar
     9    27    28   ar
    10    28    21    1
    11    21     1    1
    12     1     2    1
    13     2     3    1
    14     2     5    1
    15     5     6    1
    16     6     7    1
    17     7     8    1
    18     8     9    1
    19     9    10    1
    20    10    11    1
    21     9    12    1
    22    12    13    1
    23    13    14   ar
    24    14    15   ar
    25    15    16    1
    26    15    17   ar
    27    17    18   ar
    28    18    19   ar
    29    19    20    1
    30    31    33   am
    31    33    36    1
    32    36    37    1
    33    37    38    1
    34    28    22   ar
    35    11     6    1
    36    19    13   ar
    37    38    36    1
    38    20     9    1
    39    32    34    1
    40    26    29    1
    41     3     4    1
    42    33    35    1
@<TRIPOS>MOLECULE
*****
 38 42 0 0 0
SMALL
GASTEIGER

@<TRIPOS>ATOM
      1 C         141.2992  138.6440  160.2107 C.3     1  UNL1        0.2358
      2 C         142.6128  138.2515  160.8195 C.3     1  UNL1        0.1700
      3 O         143.1654  136.8763  160.5884 O.3     1  UNL1       -0.3793
      4 H         142.5543  136.3721  160.0287 H       1  UNL1        0.2106
      5 C         143.3736  139.2341  161.6594 C.3     1  UNL1        0.1056
      6 N         142.8738  139.5978  163.0262 N.3     1  UNL1       -0.2703
      7 C         142.8680  138.5716  164.1202 C.3     1  UNL1        0.0758
      8 C         142.3682  138.9353  165.4869 C.3     1  UNL1        0.0577
      9 C         141.8743  140.3252  165.7596 C.3     1  UNL1        0.1399
     10 C         141.8801  141.3513  164.6656 C.3     1  UNL1        0.0577
     11 C         142.3799  140.9876  163.2989 C.3     1  UNL1        0.0758
     12 C         141.3525  141.6674  166.1793 C.3     1  UNL1        0.0695
     13 C         140.9643  141.5823  167.6258 C.ar    1  UNL1        0.0161
     14 C         140.3905  142.5946  168.5723 C.ar    1  UNL1        0.0102
     15 C         140.0986  142.2121  169.9930 C.ar    1  UNL1        0.0576
     16 CL        139.5249  143.2245  170.9395 Cl      1  UNL1       -0.0823
     17 C         140.3804  140.8173  170.4672 C.ar    1  UNL1        0.0145
     18 C         140.9542  139.8048  169.5207 C.ar    1  UNL1        0.0374
     19 C         141.2461  140.1873  168.1000 C.ar    1  UNL1        0.1343
     20 O         141.8085  139.4104  166.9467 O.3     1  UNL1       -0.4825
     21 O         140.0154  138.1911  160.8406 O.3     1  UNL1       -0.4714
     22 C         139.0091  140.3702  161.8352 C.ar    1  UNL1        0.0861
     23 C         138.4384  141.1239  162.9997 C.ar    1  UNL1        0.0209
     24 C         138.3032  140.4524  164.3341 C.ar    1  UNL1        0.0381
     25 C         138.7387  139.0271  164.5041 C.ar    1  UNL1        0.1368
     26 O         138.6035  138.3556  165.8385 O.3     1  UNL1       -0.5054
     27 C         139.3095  138.2733  163.3395 C.ar    1  UNL1        0.0747
     28 C         139.4447  138.9448  162.0051 C.ar    1  UNL1        0.1550
     29 H         138.2470  138.8264  166.5660 H       1  UNL1        0.2922
     30 O         137.0852  139.7202  159.6271 O.2     1  UNL1       -0.2525
     31 C         138.1824  140.7167  159.3967 C.2     1  UNL1        0.3045
     32 N         139.1443  141.0417  160.5007 N.am    1  UNL1       -0.2658
     33 N         138.3176  141.3883  158.0622 N.am    1  UNL1       -0.2903
     34 H         139.8645  141.6958  160.3495 H       1  UNL1        0.1565
     35 H         139.0377  142.0423  157.9110 H       1  UNL1        0.1509
     36 C         137.3556  141.0633  156.9582 C.3     1  UNL1        0.0732
     37 C         137.0966  140.5967  155.5563 C.3     1  UNL1        0.0213
     38 C         135.9485  140.9670  156.4477 C.3     1  UNL1        0.0213
@<TRIPOS>BOND
     1    30    31    2
     2    31    32   am
     3    32    22    1
     4    22    23   ar
     5    23    24   ar
     6    24    25   ar
     7    25    26    1
     8    25    27   ar
     9    27    28   ar
    10    28    21    1
    11    21     1    1
    12     1     2    1
    13     2     3    1
    14     2     5    1
    15     5     6    1
    16     6     7    1
    17     7     8    1
    18     8     9    1
    19     9    10    1
    20    10    11    1
    21     9    12    1
    22    12    13    1
    23    13    14   ar
    24    14    15   ar
    25    15    16    1
    26    15    17   ar
    27    17    18   ar
    28    18    19   ar
    29    19    20    1
    30    31    33   am
    31    33    36    1
    32    36    37    1
    33    37    38    1
    34    28    22   ar
    35    11     6    1
    36    19    13   ar
    37    38    36    1
    38    20     9    1
    39    32    34    1
    40    26    29    1
    41     3     4    1
    42    33    35    1
