@<TRIPOS>MOLECULE
*****
 40 45 0 0 0
SMALL
GASTEIGER

@<TRIPOS>ATOM
      1 C         139.3857  142.5404  158.3737 C.ar    1  UNL1        0.1669
      2 N         138.5695  142.2539  159.5991 N.ar    1  UNL1       -0.2221
      3 C         138.8575  140.8459  160.0290 C.ar    1  UNL1        0.1307
      4 C         138.3429  140.0200  161.1704 C.ar    1  UNL1        0.0777
      5 C         138.8224  138.6103  161.3521 C.ar    1  UNL1        0.0893
      6 CL        138.3078  137.7842  162.4936 Cl      1  UNL1       -0.0794
      7 C         139.8165  138.0267  160.3924 C.ar    1  UNL1        0.0863
      8 N         140.3311  138.8527  159.2510 N.ar    1  UNL1       -0.3354
      9 C         139.8516  140.2623  159.0693 C.ar    1  UNL1        0.1613
     10 N         140.1781  141.3096  158.0462 N.ar    1  UNL1       -0.2080
     11 H         140.9836  138.4696  158.6210 H       1  UNL1        0.1675
     12 C         140.1603  145.0101  158.1491 C.ar    1  UNL1        0.1428
     13 C         140.1805  146.3008  157.3851 C.ar    1  UNL1        0.0515
     14 C         139.4465  146.4126  156.0818 C.ar    1  UNL1        0.0510
     15 C         138.6921  145.2336  155.5424 C.ar    1  UNL1        0.0148
     16 C         138.6719  143.9429  156.3064 C.ar    1  UNL1        0.0074
     17 C         139.4060  143.8311  157.6097 C.ar    1  UNL1        0.0698
     18 N         139.4667  147.7034  155.3179 N.pl3   1  UNL1       -0.3046
     19 C         140.1447  147.7734  153.9817 C.3     1  UNL1        0.1081
     20 C         140.1650  149.0641  153.2178 C.3     1  UNL1        0.0938
     21 N         139.5074  150.2848  153.7900 N.3     1  UNL1       -0.2686
     22 C         139.5276  151.5755  153.0261 C.3     1  UNL1        0.0897
     23 C         138.8294  150.2148  155.1263 C.3     1  UNL1        0.0938
     24 C         138.8091  148.9240  155.8902 C.3     1  UNL1        0.1081
     25 C         140.2648  145.4100  160.7141 C.3     1  UNL1        0.2525
     26 O         140.8944  144.8984  159.4524 O.3     1  UNL1       -0.4713
     27 N         137.3487  140.6035  162.1302 N.pl3   1  UNL1       -0.3313
     28 H         136.4193  140.2789  162.1343 H       1  UNL1        0.1469
     29 C         137.7706  141.6817  163.0839 C.3     1  UNL1        0.0819
     30 C         138.4193  141.4725  164.4201 C.3     1  UNL1        0.0983
     31 C         138.6676  142.8199  165.0308 C.3     1  UNL1        0.0323
     32 C         138.5150  144.2965  164.8157 C.2     1  UNL1       -0.0304
     33 C         137.8663  144.5057  163.4795 C.2     1  UNL1       -0.0294
     34 C         137.6180  143.1583  162.8688 C.3     1  UNL1        0.0404
     35 C         138.1132  142.1164  163.8275 C.3     1  UNL1        0.0109
     36 C         138.7600  140.1484  165.0372 C.2     1  UNL1        0.2208
     37 N         140.1424  139.5854  164.8892 N.am    1  UNL1       -0.3288
     38 O         137.7181  139.3874  165.8024 O.2     1  UNL1       -0.2753
     39 H         140.8261  140.0849  164.3870 H       1  UNL1        0.1449
     40 H         140.3659  138.7164  165.2943 H       1  UNL1        0.1449
@<TRIPOS>BOND
     1    25    26    1
     2    26    12    1
     3    12    13   ar
     4    13    14   ar
     5    14    18    1
     6    18    19    1
     7    19    20    1
     8    20    21    1
     9    21    22    1
    10    21    23    1
    11    23    24    1
    12    14    15   ar
    13    15    16   ar
    14    16    17   ar
    15    17     1    1
    16     1     2   ar
    17     2     3   ar
    18     3     4   ar
    19     4    27    1
    20    29    27    1
    21    29    30    1
    22    30    36    1
    23    36    37   am
    24    36    38    2
    25    30    31    1
    26    31    32    1
    27    32    33    2
    28    34    33    1
    29    34    35    1
    30     4     5   ar
    31     5     6    1
    32     5     7   ar
    33     7     8   ar
    34     8     9   ar
    35     9    10   ar
    36    17    12   ar
    37    10     1   ar
    38    24    18    1
    39     9     3    1
    40    34    29    1
    41    35    31    1
    42    27    28    1
    43    37    39    1
    44    37    40    1
    45     8    11    1
@<TRIPOS>MOLECULE
*****
 40 45 0 0 0
SMALL
GASTEIGER

@<TRIPOS>ATOM
      1 C         141.1933  139.8872  159.9534 C.ar    1  UNL1        0.1669
      2 N         141.3116  139.5889  161.4186 N.ar    1  UNL1       -0.2221
      3 C         141.1593  140.8793  162.1681 C.ar    1  UNL1        0.1307
      4 C         141.1867  141.1981  163.6336 C.ar    1  UNL1        0.0777
      5 C         141.0015  142.6127  164.0969 C.ar    1  UNL1        0.0893
      6 CL        141.0289  142.9315  165.5625 Cl      1  UNL1       -0.0794
      7 C         140.7891  143.7084  163.0949 C.ar    1  UNL1        0.0863
      8 N         140.7618  143.3896  161.6294 N.ar    1  UNL1       -0.3354
      9 C         140.9469  141.9751  161.1660 C.ar    1  UNL1        0.1613
     10 N         140.9679  141.3619  159.7972 N.ar    1  UNL1       -0.2080
     11 H         140.6223  144.1088  160.9718 H       1  UNL1        0.1675
     12 C         140.0784  138.5877  157.9993 C.ar    1  UNL1        0.1428
     13 C         140.1695  137.5870  156.8857 C.ar    1  UNL1        0.0515
     14 C         141.4666  136.8850  156.6124 C.ar    1  UNL1        0.0510
     15 C         142.6727  137.1837  157.4528 C.ar    1  UNL1        0.0148
     16 C         142.5815  138.1845  158.5665 C.ar    1  UNL1        0.0074
     17 C         141.2844  138.8865  158.8397 C.ar    1  UNL1        0.0698
     18 N         141.5577  135.8842  155.4987 N.pl3   1  UNL1       -0.3046
     19 C         142.4295  134.6728  155.6485 C.3     1  UNL1        0.1081
     20 C         142.5206  133.6721  154.5349 C.3     1  UNL1        0.0938
     21 N         141.7400  133.8827  153.2715 N.3     1  UNL1       -0.2686
     22 C         141.8311  132.8820  152.1579 C.3     1  UNL1        0.0897
     23 C         140.8682  135.0942  153.1217 C.3     1  UNL1        0.0938
     24 C         140.7771  136.0949  154.2353 C.3     1  UNL1        0.1081
     25 C         138.3516  140.4360  157.4056 C.3     1  UNL1        0.2525
     26 O         138.7812  139.2897  158.2725 O.3     1  UNL1       -0.4713
     27 N         141.3991  140.1023  164.6357 N.pl3   1  UNL1       -0.3313
     28 H         142.3128  139.8352  164.8867 H       1  UNL1        0.1469
     29 C         140.2195  139.4136  165.2554 C.3     1  UNL1        0.0819
     30 C         139.4866  138.2357  164.6850 C.3     1  UNL1        0.0983
     31 C         138.3797  137.8759  165.6313 C.3     1  UNL1        0.0323
     32 C         137.7258  138.2442  166.9301 C.2     1  UNL1       -0.0304
     33 C         138.4587  139.4222  167.5004 C.2     1  UNL1       -0.0294
     34 C         139.5656  139.7819  166.5541 C.3     1  UNL1        0.0404
     35 C         139.5168  138.8263  165.3990 C.3     1  UNL1        0.0109
     36 C         139.8046  137.5396  163.3949 C.2     1  UNL1        0.2208
     37 N         138.8702  137.6597  162.2277 N.am    1  UNL1       -0.3288
     38 O         141.0572  136.7235  163.2720 O.2     1  UNL1       -0.2753
     39 H         138.0482  138.1954  162.3083 H       1  UNL1        0.1449
     40 H         139.0790  137.2029  161.3810 H       1  UNL1        0.1449
@<TRIPOS>BOND
     1    25    26    1
     2    26    12    1
     3    12    13   ar
     4    13    14   ar
     5    14    18    1
     6    18    19    1
     7    19    20    1
     8    20    21    1
     9    21    22    1
    10    21    23    1
    11    23    24    1
    12    14    15   ar
    13    15    16   ar
    14    16    17   ar
    15    17     1    1
    16     1     2   ar
    17     2     3   ar
    18     3     4   ar
    19     4    27    1
    20    29    27    1
    21    29    30    1
    22    30    36    1
    23    36    37   am
    24    36    38    2
    25    30    31    1
    26    31    32    1
    27    32    33    2
    28    34    33    1
    29    34    35    1
    30     4     5   ar
    31     5     6    1
    32     5     7   ar
    33     7     8   ar
    34     8     9   ar
    35     9    10   ar
    36    17    12   ar
    37    10     1   ar
    38    24    18    1
    39     9     3    1
    40    34    29    1
    41    35    31    1
    42    27    28    1
    43    37    39    1
    44    37    40    1
    45     8    11    1
@<TRIPOS>MOLECULE
*****
 40 45 0 0 0
SMALL
GASTEIGER

@<TRIPOS>ATOM
      1 C         139.2010  142.4139  160.6294 C.ar    1  UNL1        0.1669
      2 N         140.0061  141.2012  160.9916 N.ar    1  UNL1       -0.2221
      3 C         139.4348  140.6255  162.2534 C.ar    1  UNL1        0.1307
      4 C         139.8196  139.4317  163.0760 C.ar    1  UNL1        0.0777
      5 C         139.0461  139.0948  164.3164 C.ar    1  UNL1        0.0893
      6 CL        139.4309  137.9009  165.1391 Cl      1  UNL1       -0.0794
      7 C         137.8880  139.9516  164.7339 C.ar    1  UNL1        0.0863
      8 N         137.5032  141.1454  163.9113 N.ar    1  UNL1       -0.3354
      9 C         138.2766  141.4824  162.6710 C.ar    1  UNL1        0.1613
     10 N         138.1321  142.5877  161.6673 N.ar    1  UNL1       -0.2080
     11 H         136.7430  141.7078  164.1854 H       1  UNL1        0.1675
     12 C         140.1001  144.6267  159.6071 C.ar    1  UNL1        0.1428
     13 C         140.3244  145.5104  158.4159 C.ar    1  UNL1        0.0515
     14 C         139.8740  145.0653  157.0562 C.ar    1  UNL1        0.0510
     15 C         139.1993  143.7363  156.8875 C.ar    1  UNL1        0.0148
     16 C         138.9749  142.8525  158.0786 C.ar    1  UNL1        0.0074
     17 C         139.4253  143.2977  159.4384 C.ar    1  UNL1        0.0698
     18 N         140.0984  145.9491  155.8652 N.pl3   1  UNL1       -0.3046
     19 C         139.3982  147.2722  155.7706 C.3     1  UNL1        0.1081
     20 C         139.6225  148.1560  154.5796 C.3     1  UNL1        0.0938
     21 N         140.5470  147.7167  153.4832 N.3     1  UNL1       -0.2686
     22 C         140.7714  148.6005  152.2921 C.3     1  UNL1        0.0897
     23 C         141.2473  146.3935  153.5777 C.3     1  UNL1        0.0938
     24 C         141.0229  145.5097  154.7687 C.3     1  UNL1        0.1081
     25 C         139.8052  146.1570  161.6858 C.3     1  UNL1        0.2525
     26 O         140.5506  145.0719  160.9667 O.3     1  UNL1       -0.4713
     27 N         140.9778  138.5748  162.6585 N.pl3   1  UNL1       -0.3313
     28 H         140.8344  137.8182  162.0452 H       1  UNL1        0.1469
     29 C         142.3545  138.8708  163.1753 C.3     1  UNL1        0.0819
     30 C         143.4883  139.4499  162.3822 C.3     1  UNL1        0.0983
     31 C         144.6736  139.5767  163.2927 C.3     1  UNL1        0.0323
     32 C         145.1582  139.3455  164.6934 C.2     1  UNL1       -0.0304
     33 C         144.0243  138.7665  165.4865 C.2     1  UNL1       -0.0294
     34 C         142.8390  138.6397  164.5760 C.3     1  UNL1        0.0404
     35 C         143.2403  139.1404  163.2202 C.3     1  UNL1        0.0109
     36 C         143.4446  139.8347  160.9330 C.2     1  UNL1        0.2208
     37 N         142.8736  141.1606  160.5260 N.am    1  UNL1       -0.3288
     38 O         143.9719  138.8934  159.8909 O.2     1  UNL1       -0.2753
     39 H         142.5275  141.7784  161.2100 H       1  UNL1        0.1449
     40 H         142.8449  141.4132  159.5749 H       1  UNL1        0.1449
@<TRIPOS>BOND
     1    25    26    1
     2    26    12    1
     3    12    13   ar
     4    13    14   ar
     5    14    18    1
     6    18    19    1
     7    19    20    1
     8    20    21    1
     9    21    22    1
    10    21    23    1
    11    23    24    1
    12    14    15   ar
    13    15    16   ar
    14    16    17   ar
    15    17     1    1
    16     1     2   ar
    17     2     3   ar
    18     3     4   ar
    19     4    27    1
    20    29    27    1
    21    29    30    1
    22    30    36    1
    23    36    37   am
    24    36    38    2
    25    30    31    1
    26    31    32    1
    27    32    33    2
    28    34    33    1
    29    34    35    1
    30     4     5   ar
    31     5     6    1
    32     5     7   ar
    33     7     8   ar
    34     8     9   ar
    35     9    10   ar
    36    17    12   ar
    37    10     1   ar
    38    24    18    1
    39     9     3    1
    40    34    29    1
    41    35    31    1
    42    27    28    1
    43    37    39    1
    44    37    40    1
    45     8    11    1
@<TRIPOS>MOLECULE
*****
 40 45 0 0 0
SMALL
GASTEIGER

@<TRIPOS>ATOM
      1 C         141.6879  140.6777  161.6703 C.ar    1  UNL1        0.1669
      2 N         142.1056  140.2528  163.0468 N.ar    1  UNL1       -0.2221
      3 C         140.8774  140.1921  163.9058 C.ar    1  UNL1        0.1307
      4 C         140.6785  139.8341  165.3488 C.ar    1  UNL1        0.0777
      5 C         139.3027  139.8636  165.9460 C.ar    1  UNL1        0.0893
      6 CL        139.1038  139.5055  167.3891 Cl      1  UNL1       -0.0794
      7 C         138.1261  140.2510  165.1003 C.ar    1  UNL1        0.0863
      8 N         138.3250  140.6090  163.6573 N.ar    1  UNL1       -0.3354
      9 C         139.7006  140.5796  163.0601 C.ar    1  UNL1        0.1613
     10 N         140.2016  140.8797  161.6784 N.ar    1  UNL1       -0.2080
     11 H         137.5527  140.8633  163.1023 H       1  UNL1        0.1675
     12 C         143.5426  142.0312  160.4544 C.ar    1  UNL1        0.1428
     13 C         144.4516  142.2208  159.2763 C.ar    1  UNL1        0.0515
     14 C         144.4151  141.2467  158.1363 C.ar    1  UNL1        0.0510
     15 C         143.4696  140.0829  158.1742 C.ar    1  UNL1        0.0148
     16 C         142.5605  139.8933  159.3522 C.ar    1  UNL1        0.0074
     17 C         142.5970  140.8674  160.4923 C.ar    1  UNL1        0.0698
     18 N         145.3242  141.4364  156.9583 N.pl3   1  UNL1       -0.3046
     19 C         146.4660  142.4057  157.0406 C.3     1  UNL1        0.1081
     20 C         147.3751  142.5954  155.8626 C.3     1  UNL1        0.0938
     21 N         147.1424  141.8159  154.6025 N.3     1  UNL1       -0.2686
     22 C         148.0515  142.0056  153.4245 C.3     1  UNL1        0.0897
     23 C         146.0005  140.8466  154.5201 C.3     1  UNL1        0.0938
     24 C         145.0915  140.6569  155.6981 C.3     1  UNL1        0.1081
     25 C         142.5631  144.1060  161.6734 C.3     1  UNL1        0.2525
     26 O         143.5792  143.0054  161.5944 O.3     1  UNL1       -0.4713
     27 N         141.8551  139.4466  166.1946 N.pl3   1  UNL1       -0.3313
     28 H         142.2727  138.5622  166.0815 H       1  UNL1        0.1469
     29 C         142.3956  140.4065  167.2126 C.3     1  UNL1        0.0819
     30 C         142.8932  141.7947  166.9385 C.3     1  UNL1        0.0983
     31 C         143.3385  142.3930  168.2400 C.3     1  UNL1        0.0323
     32 C         143.4761  142.1333  169.7109 C.2     1  UNL1       -0.0304
     33 C         142.9784  140.7450  169.9850 C.2     1  UNL1       -0.0294
     34 C         142.5332  140.1468  168.6835 C.3     1  UNL1        0.0404
     35 C         142.7557  141.1652  167.6050 C.3     1  UNL1        0.0109
     36 C         142.9379  142.4667  165.5981 C.2     1  UNL1        0.2208
     37 N         144.0988  142.2294  164.6784 N.am    1  UNL1       -0.3288
     38 O         141.8215  143.3761  165.1775 O.2     1  UNL1       -0.2753
     39 H         144.8315  141.6326  164.9545 H       1  UNL1        0.1449
     40 H         144.1281  142.6705  163.7987 H       1  UNL1        0.1449
@<TRIPOS>BOND
     1    25    26    1
     2    26    12    1
     3    12    13   ar
     4    13    14   ar
     5    14    18    1
     6    18    19    1
     7    19    20    1
     8    20    21    1
     9    21    22    1
    10    21    23    1
    11    23    24    1
    12    14    15   ar
    13    15    16   ar
    14    16    17   ar
    15    17     1    1
    16     1     2   ar
    17     2     3   ar
    18     3     4   ar
    19     4    27    1
    20    29    27    1
    21    29    30    1
    22    30    36    1
    23    36    37   am
    24    36    38    2
    25    30    31    1
    26    31    32    1
    27    32    33    2
    28    34    33    1
    29    34    35    1
    30     4     5   ar
    31     5     6    1
    32     5     7   ar
    33     7     8   ar
    34     8     9   ar
    35     9    10   ar
    36    17    12   ar
    37    10     1   ar
    38    24    18    1
    39     9     3    1
    40    34    29    1
    41    35    31    1
    42    27    28    1
    43    37    39    1
    44    37    40    1
    45     8    11    1
@<TRIPOS>MOLECULE
*****
 40 45 0 0 0
SMALL
GASTEIGER

@<TRIPOS>ATOM
      1 C         140.0299  141.4759  160.0347 C.ar    1  UNL1        0.1669
      2 N         139.2667  141.4238  161.3249 N.ar    1  UNL1       -0.2221
      3 C         139.5901  140.1253  162.0026 C.ar    1  UNL1        0.1307
      4 C         139.1320  139.5293  163.3007 C.ar    1  UNL1        0.0777
      5 C         139.6371  138.1828  163.7273 C.ar    1  UNL1        0.0893
      6 CL        139.1790  137.5867  165.0254 Cl      1  UNL1       -0.0794
      7 C         140.6002  137.4324  162.8560 C.ar    1  UNL1        0.0863
      8 N         141.0583  138.0285  161.5579 N.ar    1  UNL1       -0.3354
      9 C         140.5532  139.3749  161.1313 C.ar    1  UNL1        0.1613
     10 N         140.8250  140.2096  159.9150 N.ar    1  UNL1       -0.2080
     11 H         141.6904  137.5359  160.9860 H       1  UNL1        0.1675
     12 C         140.4313  143.9751  159.4491 C.ar    1  UNL1        0.1428
     13 C         140.4041  145.0965  158.4533 C.ar    1  UNL1        0.0515
     14 C         139.9486  144.8403  157.0473 C.ar    1  UNL1        0.0510
     15 C         139.5201  143.4626  156.6371 C.ar    1  UNL1        0.0148
     16 C         139.5472  142.3411  157.6330 C.ar    1  UNL1        0.0074
     17 C         140.0028  142.5974  159.0389 C.ar    1  UNL1        0.0698
     18 N         139.9215  145.9618  156.0515 N.pl3   1  UNL1       -0.3046
     19 C         139.1304  147.2028  156.3411 C.3     1  UNL1        0.1081
     20 C         139.1032  148.3243  155.3454 C.3     1  UNL1        0.0938
     21 N         139.8672  148.2048  154.0601 N.3     1  UNL1       -0.2686
     22 C         139.8401  149.3262  153.0643 C.3     1  UNL1        0.0897
     23 C         140.6583  146.9636  153.7704 C.3     1  UNL1        0.0938
     24 C         140.6854  145.8422  154.7662 C.3     1  UNL1        0.1081
     25 C         140.0700  145.1046  161.7608 C.3     1  UNL1        0.2525
     26 O         140.8869  144.2314  160.8550 O.3     1  UNL1       -0.4713
     27 N         138.1689  140.2797  164.1721 N.pl3   1  UNL1       -0.3313
     28 H         137.3033  139.8757  164.4106 H       1  UNL1        0.1469
     29 C         138.5245  141.6454  164.6802 C.3     1  UNL1        0.0819
     30 C         139.6621  141.9751  165.6006 C.3     1  UNL1        0.0983
     31 C         139.6458  143.4547  165.8463 C.3     1  UNL1        0.0323
     32 C         138.9263  144.7306  165.5231 C.2     1  UNL1       -0.0304
     33 C         137.7887  144.4010  164.6027 C.2     1  UNL1       -0.0294
     34 C         137.8051  142.9213  164.3570 C.3     1  UNL1        0.0404
     35 C         138.9528  142.3365  165.1256 C.3     1  UNL1        0.0109
     36 C         140.6438  140.9968  166.1745 C.2     1  UNL1        0.2208
     37 N         140.3658  140.3428  167.4955 N.am    1  UNL1       -0.3288
     38 O         141.9035  140.6726  165.4275 O.2     1  UNL1       -0.2753
     39 H         139.5390  140.5556  167.9858 H       1  UNL1        0.1449
     40 H         141.0101  139.7008  167.8722 H       1  UNL1        0.1449
@<TRIPOS>BOND
     1    25    26    1
     2    26    12    1
     3    12    13   ar
     4    13    14   ar
     5    14    18    1
     6    18    19    1
     7    19    20    1
     8    20    21    1
     9    21    22    1
    10    21    23    1
    11    23    24    1
    12    14    15   ar
    13    15    16   ar
    14    16    17   ar
    15    17     1    1
    16     1     2   ar
    17     2     3   ar
    18     3     4   ar
    19     4    27    1
    20    29    27    1
    21    29    30    1
    22    30    36    1
    23    36    37   am
    24    36    38    2
    25    30    31    1
    26    31    32    1
    27    32    33    2
    28    34    33    1
    29    34    35    1
    30     4     5   ar
    31     5     6    1
    32     5     7   ar
    33     7     8   ar
    34     8     9   ar
    35     9    10   ar
    36    17    12   ar
    37    10     1   ar
    38    24    18    1
    39     9     3    1
    40    34    29    1
    41    35    31    1
    42    27    28    1
    43    37    39    1
    44    37    40    1
    45     8    11    1
@<TRIPOS>MOLECULE
*****
 40 45 0 0 0
SMALL
GASTEIGER

@<TRIPOS>ATOM
      1 C         139.4038  142.6632  160.7077 C.ar    1  UNL1        0.1669
      2 N         140.3577  141.6169  161.2031 N.ar    1  UNL1       -0.2221
      3 C         139.7785  141.0140  162.4485 C.ar    1  UNL1        0.1307
      4 C         140.2761  139.9387  163.3682 C.ar    1  UNL1        0.0777
      5 C         139.4618  139.5370  164.5623 C.ar    1  UNL1        0.0893
      6 CL        139.9594  138.4616  165.4821 Cl      1  UNL1       -0.0794
      7 C         138.1501  140.2107  164.8366 C.ar    1  UNL1        0.0863
      8 N         137.6524  141.2861  163.9169 N.ar    1  UNL1       -0.3354
      9 C         138.4666  141.6878  162.7228 C.ar    1  UNL1        0.1613
     10 N         138.2351  142.7070  161.6469 N.ar    1  UNL1       -0.2080
     11 H         136.7914  141.7283  164.0969 H       1  UNL1        0.1675
     12 C         140.2297  144.8660  159.6051 C.ar    1  UNL1        0.1428
     13 C         140.4125  145.7187  158.3847 C.ar    1  UNL1        0.0515
     14 C         139.9521  145.2215  157.0464 C.ar    1  UNL1        0.0510
     15 C         139.3090  143.8715  156.9286 C.ar    1  UNL1        0.0148
     16 C         139.1263  143.0188  158.1491 C.ar    1  UNL1        0.0074
     17 C         139.5866  143.5160  159.4873 C.ar    1  UNL1        0.0698
     18 N         140.1349  146.0743  155.8261 N.pl3   1  UNL1       -0.3046
     19 C         141.0479  145.6223  154.7252 C.3     1  UNL1        0.1081
     20 C         141.2307  146.4750  153.5048 C.3     1  UNL1        0.0938
     21 N         140.5005  147.7798  153.3853 N.3     1  UNL1       -0.2686
     22 C         140.6833  148.6325  152.1649 C.3     1  UNL1        0.0897
     23 C         139.5874  148.2318  154.4862 C.3     1  UNL1        0.0938
     24 C         139.4046  147.3790  155.7066 C.3     1  UNL1        0.1081
     25 C         139.7760  146.2013  161.7871 C.3     1  UNL1        0.2525
     26 O         140.6901  145.3632  160.9433 O.3     1  UNL1       -0.4713
     27 N         141.5879  139.2649  163.0940 N.pl3   1  UNL1       -0.3313
     28 H         141.6060  138.3318  162.7806 H       1  UNL1        0.1469
     29 C         142.8721  140.0128  163.2972 C.3     1  UNL1        0.0819
     30 C         143.6253  140.1368  164.5885 C.3     1  UNL1        0.0983
     31 C         144.8473  140.9687  164.3343 C.3     1  UNL1        0.0323
     32 C         145.6039  141.7239  163.2821 C.2     1  UNL1       -0.0304
     33 C         144.8507  141.5999  161.9908 C.2     1  UNL1       -0.0294
     34 C         143.6287  140.7680  162.2450 C.3     1  UNL1        0.0404
     35 C         143.6265  140.3779  163.6934 C.3     1  UNL1        0.0109
     36 C         143.2264  139.5346  165.9032 C.2     1  UNL1        0.2208
     37 N         143.6595  138.1416  166.2523 N.am    1  UNL1       -0.3288
     38 O         142.3944  140.3255  166.8688 O.2     1  UNL1       -0.2753
     39 H         144.2056  137.6226  165.6186 H       1  UNL1        0.1449
     40 H         143.3978  137.7464  167.1152 H       1  UNL1        0.1449
@<TRIPOS>BOND
     1    25    26    1
     2    26    12    1
     3    12    13   ar
     4    13    14   ar
     5    14    18    1
     6    18    19    1
     7    19    20    1
     8    20    21    1
     9    21    22    1
    10    21    23    1
    11    23    24    1
    12    14    15   ar
    13    15    16   ar
    14    16    17   ar
    15    17     1    1
    16     1     2   ar
    17     2     3   ar
    18     3     4   ar
    19     4    27    1
    20    29    27    1
    21    29    30    1
    22    30    36    1
    23    36    37   am
    24    36    38    2
    25    30    31    1
    26    31    32    1
    27    32    33    2
    28    34    33    1
    29    34    35    1
    30     4     5   ar
    31     5     6    1
    32     5     7   ar
    33     7     8   ar
    34     8     9   ar
    35     9    10   ar
    36    17    12   ar
    37    10     1   ar
    38    24    18    1
    39     9     3    1
    40    34    29    1
    41    35    31    1
    42    27    28    1
    43    37    39    1
    44    37    40    1
    45     8    11    1
@<TRIPOS>MOLECULE
*****
 40 45 0 0 0
SMALL
GASTEIGER

@<TRIPOS>ATOM
      1 C         140.3852  140.4563  160.0697 C.ar    1  UNL1        0.1669
      2 N         140.6687  140.3495  161.5388 N.ar    1  UNL1       -0.2221
      3 C         140.2375  141.6309  162.1884 C.ar    1  UNL1        0.1307
      4 C         140.2746  142.0954  163.6142 C.ar    1  UNL1        0.0777
      5 C         139.7617  143.4588  163.9723 C.ar    1  UNL1        0.0893
      6 CL        139.7988  143.9234  165.3982 Cl      1  UNL1       -0.0794
      7 C         139.2117  144.3575  162.9048 C.ar    1  UNL1        0.0863
      8 N         139.1746  143.8930  161.4790 N.ar    1  UNL1       -0.3354
      9 C         139.6874  142.5297  161.1208 C.ar    1  UNL1        0.1613
     10 N         139.7787  141.8037  159.8114 N.ar    1  UNL1       -0.2080
     11 H         138.8136  144.4829  160.7784 H       1  UNL1        0.1675
     12 C         142.0702  138.9706  158.7646 C.ar    1  UNL1        0.1428
     13 C         142.3447  137.9152  157.7346 C.ar    1  UNL1        0.0515
     14 C         141.2091  137.2903  156.9797 C.ar    1  UNL1        0.0510
     15 C         139.7988  137.7208  157.2548 C.ar    1  UNL1        0.0148
     16 C         139.5242  138.7761  158.2849 C.ar    1  UNL1        0.0074
     17 C         140.6598  139.4010  159.0397 C.ar    1  UNL1        0.0698
     18 N         141.4838  136.2350  155.9497 N.pl3   1  UNL1       -0.3046
     19 C         140.7567  136.2601  154.6380 C.3     1  UNL1        0.1081
     20 C         141.0314  135.2048  153.6080 C.3     1  UNL1        0.0938
     21 N         142.0330  134.1245  153.8897 N.3     1  UNL1       -0.2686
     22 C         142.3077  133.0692  152.8597 C.3     1  UNL1        0.0897
     23 C         142.7601  134.0993  155.2015 C.3     1  UNL1        0.0938
     24 C         142.4855  135.1547  156.2315 C.3     1  UNL1        0.1081
     25 C         143.9254  138.8112  160.5764 C.3     1  UNL1        0.2525
     26 O         143.2058  139.5954  159.5194 O.3     1  UNL1       -0.4713
     27 N         140.8246  141.1967  164.6818 N.pl3   1  UNL1       -0.3313
     28 H         141.6690  141.4272  165.1325 H       1  UNL1        0.1469
     29 C         140.0881  139.9468  165.0628 C.3     1  UNL1        0.0819
     30 C         140.4510  138.5502  164.6533 C.3     1  UNL1        0.0983
     31 C         139.4466  137.6142  165.2575 C.3     1  UNL1        0.0323
     32 C         138.2179  137.5414  166.1149 C.2     1  UNL1       -0.0304
     33 C         137.8550  138.9380  166.5244 C.2     1  UNL1       -0.0294
     34 C         138.8594  139.8740  165.9201 C.3     1  UNL1        0.0404
     35 C         139.8431  139.0558  165.1371 C.3     1  UNL1        0.0109
     36 C         141.6141  138.1583  163.7909 C.2     1  UNL1        0.2208
     37 N         141.4017  137.2616  162.6073 N.am    1  UNL1       -0.3288
     38 O         142.9896  138.6630  164.1121 O.2     1  UNL1       -0.2753
     39 H         140.4989  136.9303  162.3964 H       1  UNL1        0.1449
     40 H         142.1651  137.0044  162.0413 H       1  UNL1        0.1449
@<TRIPOS>BOND
     1    25    26    1
     2    26    12    1
     3    12    13   ar
     4    13    14   ar
     5    14    18    1
     6    18    19    1
     7    19    20    1
     8    20    21    1
     9    21    22    1
    10    21    23    1
    11    23    24    1
    12    14    15   ar
    13    15    16   ar
    14    16    17   ar
    15    17     1    1
    16     1     2   ar
    17     2     3   ar
    18     3     4   ar
    19     4    27    1
    20    29    27    1
    21    29    30    1
    22    30    36    1
    23    36    37   am
    24    36    38    2
    25    30    31    1
    26    31    32    1
    27    32    33    2
    28    34    33    1
    29    34    35    1
    30     4     5   ar
    31     5     6    1
    32     5     7   ar
    33     7     8   ar
    34     8     9   ar
    35     9    10   ar
    36    17    12   ar
    37    10     1   ar
    38    24    18    1
    39     9     3    1
    40    34    29    1
    41    35    31    1
    42    27    28    1
    43    37    39    1
    44    37    40    1
    45     8    11    1
@<TRIPOS>MOLECULE
*****
 40 45 0 0 0
SMALL
GASTEIGER

@<TRIPOS>ATOM
      1 C         140.0249  141.0905  160.3255 C.ar    1  UNL1        0.1669
      2 N         139.4768  140.9423  161.7139 N.ar    1  UNL1       -0.2221
      3 C         139.2460  142.3161  162.2701 C.ar    1  UNL1        0.1307
      4 C         138.7190  142.7879  163.5929 C.ar    1  UNL1        0.0777
      5 C         138.5975  144.2569  163.8710 C.ar    1  UNL1        0.0893
      6 CL        138.0705  144.7287  165.1938 Cl      1  UNL1       -0.0794
      7 C         139.0030  145.2540  162.8265 C.ar    1  UNL1        0.0863
      8 N         139.5300  144.7823  161.5037 N.ar    1  UNL1       -0.3354
      9 C         139.6515  143.3133  161.2255 C.ar    1  UNL1        0.1613
     10 N         140.1329  142.5558  160.0237 N.ar    1  UNL1       -0.2080
     11 H         139.7961  145.4368  160.8181 H       1  UNL1        0.1675
     12 C         139.3888  139.4242  158.4363 C.ar    1  UNL1        0.1428
     13 C         139.7633  138.3037  157.5120 C.ar    1  UNL1        0.0515
     14 C         141.1482  137.7290  157.5526 C.ar    1  UNL1        0.0510
     15 C         142.1587  138.2747  158.5175 C.ar    1  UNL1        0.0148
     16 C         141.7842  139.3952  159.4418 C.ar    1  UNL1        0.0074
     17 C         140.3993  139.9700  159.4012 C.ar    1  UNL1        0.0698
     18 N         141.5226  136.6085  156.6283 N.pl3   1  UNL1       -0.3046
     19 C         142.7727  135.8175  156.8766 C.3     1  UNL1        0.1081
     20 C         143.1471  134.6970  155.9522 C.3     1  UNL1        0.0938
     21 N         142.2716  134.3676  154.7798 N.3     1  UNL1       -0.2686
     22 C         142.6460  133.2471  153.8555 C.3     1  UNL1        0.0897
     23 C         141.0214  135.1586  154.5315 C.3     1  UNL1        0.0938
     24 C         140.6470  136.2791  155.4558 C.3     1  UNL1        0.1081
     25 C         137.5998  140.9032  157.2691 C.3     1  UNL1        0.2525
     26 O         138.0039  139.9989  158.3956 O.3     1  UNL1       -0.4713
     27 N         138.3135  141.7907  164.6376 N.pl3   1  UNL1       -0.3313
     28 H         137.4021  141.4185  164.6354 H       1  UNL1        0.1469
     29 C         139.2967  141.3606  165.6856 C.3     1  UNL1        0.0819
     30 C         139.3732  140.0028  166.3184 C.3     1  UNL1        0.0983
     31 C         140.4998  140.0158  167.3087 C.3     1  UNL1        0.0323
     32 C         141.5790  140.8679  167.9079 C.2     1  UNL1       -0.0304
     33 C         141.5025  142.2257  167.2751 C.2     1  UNL1       -0.0294
     34 C         140.3759  142.2127  166.2847 C.3     1  UNL1        0.0404
     35 C         139.7562  140.8469  166.3055 C.3     1  UNL1        0.0109
     36 C         138.4800  138.8367  166.0143 C.2     1  UNL1        0.2208
     37 N         138.7488  137.9792  164.8133 N.am    1  UNL1       -0.3288
     38 O         137.3179  138.5282  166.9112 O.2     1  UNL1       -0.2753
     39 H         139.5115  138.1817  164.2247 H       1  UNL1        0.1449
     40 H         138.1625  137.2138  164.6138 H       1  UNL1        0.1449
@<TRIPOS>BOND
     1    25    26    1
     2    26    12    1
     3    12    13   ar
     4    13    14   ar
     5    14    18    1
     6    18    19    1
     7    19    20    1
     8    20    21    1
     9    21    22    1
    10    21    23    1
    11    23    24    1
    12    14    15   ar
    13    15    16   ar
    14    16    17   ar
    15    17     1    1
    16     1     2   ar
    17     2     3   ar
    18     3     4   ar
    19     4    27    1
    20    29    27    1
    21    29    30    1
    22    30    36    1
    23    36    37   am
    24    36    38    2
    25    30    31    1
    26    31    32    1
    27    32    33    2
    28    34    33    1
    29    34    35    1
    30     4     5   ar
    31     5     6    1
    32     5     7   ar
    33     7     8   ar
    34     8     9   ar
    35     9    10   ar
    36    17    12   ar
    37    10     1   ar
    38    24    18    1
    39     9     3    1
    40    34    29    1
    41    35    31    1
    42    27    28    1
    43    37    39    1
    44    37    40    1
    45     8    11    1
@<TRIPOS>MOLECULE
*****
 40 45 0 0 0
SMALL
GASTEIGER

@<TRIPOS>ATOM
      1 C         139.4456  141.5615  160.1203 C.ar    1  UNL1        0.1669
      2 N         139.0020  141.7202  161.5444 N.ar    1  UNL1       -0.2221
      3 C         139.0643  140.3735  162.2020 C.ar    1  UNL1        0.1307
      4 C         138.7444  139.9216  163.5961 C.ar    1  UNL1        0.0777
      5 C         138.9065  138.4786  163.9725 C.ar    1  UNL1        0.0893
      6 CL        138.5866  138.0266  165.3666 Cl      1  UNL1       -0.0794
      7 C         139.3886  137.4877  162.9549 C.ar    1  UNL1        0.0863
      8 N         139.7085  137.9396  161.5608 N.ar    1  UNL1       -0.3354
      9 C         139.5464  139.3825  161.1844 C.ar    1  UNL1        0.1613
     10 N         139.7820  140.1167  159.8978 N.ar    1  UNL1       -0.2080
     11 H         140.0249  137.2891  160.8929 H       1  UNL1        0.1675
     12 C         140.4909  143.7947  159.3018 C.ar    1  UNL1        0.1428
     13 C         140.5819  144.8887  158.2796 C.ar    1  UNL1        0.0515
     14 C         139.7189  144.8434  157.0536 C.ar    1  UNL1        0.0510
     15 C         138.7647  143.7041  156.8498 C.ar    1  UNL1        0.0148
     16 C         138.6736  142.6102  157.8721 C.ar    1  UNL1        0.0074
     17 C         139.5367  142.6554  159.0981 C.ar    1  UNL1        0.0698
     18 N         139.8100  145.9374  156.0314 N.pl3   1  UNL1       -0.3046
     19 C         140.6730  145.7595  154.8175 C.3     1  UNL1        0.1081
     20 C         140.7641  146.8535  153.7953 C.3     1  UNL1        0.0938
     21 N         139.9923  148.1253  153.9869 N.3     1  UNL1       -0.2686
     22 C         140.0834  149.2192  152.9647 C.3     1  UNL1        0.0897
     23 C         139.1292  148.3032  155.2009 C.3     1  UNL1        0.0938
     24 C         139.0381  147.2092  156.2231 C.3     1  UNL1        0.1081
     25 C         142.7656  143.3362  160.4703 C.3     1  UNL1        0.2525
     26 O         141.3540  143.8401  160.5278 O.3     1  UNL1       -0.4713
     27 N         138.2623  140.9125  164.6138 N.pl3   1  UNL1       -0.3313
     28 H         137.3257  141.2156  164.6006 H       1  UNL1        0.1469
     29 C         139.2072  141.4417  165.6515 C.3     1  UNL1        0.0819
     30 C         139.8874  142.7783  165.6249 C.3     1  UNL1        0.0983
     31 C         140.7385  142.8899  166.8550 C.3     1  UNL1        0.0323
     32 C         141.1691  142.1755  168.1017 C.2     1  UNL1       -0.0304
     33 C         140.4888  140.8389  168.1284 C.2     1  UNL1       -0.0294
     34 C         139.6378  140.7273  166.8982 C.3     1  UNL1        0.0404
     35 C         139.7921  141.9949  166.1112 C.3     1  UNL1        0.0109
     36 C         139.7422  143.8204  164.5557 C.2     1  UNL1        0.2208
     37 N         140.5595  143.7270  163.3014 N.am    1  UNL1       -0.3288
     38 O         138.7797  144.9558  164.7409 O.2     1  UNL1       -0.2753
     39 H         141.1912  142.9818  163.1798 H       1  UNL1        0.1449
     40 H         140.4641  144.4109  162.5997 H       1  UNL1        0.1449
@<TRIPOS>BOND
     1    25    26    1
     2    26    12    1
     3    12    13   ar
     4    13    14   ar
     5    14    18    1
     6    18    19    1
     7    19    20    1
     8    20    21    1
     9    21    22    1
    10    21    23    1
    11    23    24    1
    12    14    15   ar
    13    15    16   ar
    14    16    17   ar
    15    17     1    1
    16     1     2   ar
    17     2     3   ar
    18     3     4   ar
    19     4    27    1
    20    29    27    1
    21    29    30    1
    22    30    36    1
    23    36    37   am
    24    36    38    2
    25    30    31    1
    26    31    32    1
    27    32    33    2
    28    34    33    1
    29    34    35    1
    30     4     5   ar
    31     5     6    1
    32     5     7   ar
    33     7     8   ar
    34     8     9   ar
    35     9    10   ar
    36    17    12   ar
    37    10     1   ar
    38    24    18    1
    39     9     3    1
    40    34    29    1
    41    35    31    1
    42    27    28    1
    43    37    39    1
    44    37    40    1
    45     8    11    1
