@<TRIPOS>MOLECULE
*****
 33 37 0 0 0
SMALL
GASTEIGER

@<TRIPOS>ATOM
      1 O         139.3854  140.7919  169.0216 O.2     1  UNL1       -0.2751
      2 C         138.9231  139.9270  167.8867 C.2     1  UNL1        0.2220
      3 N         138.0023  138.7479  167.9950 N.am    1  UNL1       -0.3040
      4 C         137.8105  138.1815  166.6193 C.3     1  UNL1        0.0941
      5 C         138.6129  139.0106  165.6607 C.3     1  UNL1        0.0501
      6 C         139.3005  140.0894  166.4439 C.3     1  UNL1        0.0768
      7 C         139.5874  140.1268  164.9721 C.3     1  UNL1        0.0263
      8 C         140.4932  141.1826  164.4112 C.3     1  UNL1        0.0726
      9 N         141.1122  142.2010  165.3221 N.3     1  UNL1       -0.2716
     10 C         140.8254  142.1636  166.7939 C.3     1  UNL1        0.0726
     11 C         139.9195  141.1078  167.3548 C.3     1  UNL1        0.0263
     12 H         137.5953  138.4057  168.8236 H       1  UNL1        0.1494
     13 C         142.0182  143.2568  164.7611 C.3     1  UNL1        0.0861
     14 C         141.4438  144.5480  164.2584 C.3     1  UNL1        0.0187
     15 C         142.3497  145.6039  163.6974 C.3     1  UNL1        0.0016
     16 C         143.8300  145.3684  163.6392 C.3     1  UNL1        0.0028
     17 C         144.4043  144.0770  164.1420 C.3     1  UNL1        0.0325
     18 C         143.4984  143.0213  164.7029 C.3     1  UNL1        0.1202
     19 O         144.8239  142.3365  164.8583 O.3     1  UNL1       -0.3814
     20 H         145.5280  142.9161  164.5278 H       1  UNL1        0.2107
     21 C         143.0528  141.7277  165.3178 C.ar    1  UNL1        0.0030
     22 C         142.7143  140.5582  164.4417 C.ar    1  UNL1       -0.0020
     23 C         142.2687  139.2646  165.0566 C.ar    1  UNL1       -0.0002
     24 C         142.1616  139.1405  166.5476 C.ar    1  UNL1       -0.0000
     25 C         142.5001  140.3100  167.4237 C.ar    1  UNL1       -0.0002
     26 C         142.9457  141.6036  166.8088 C.ar    1  UNL1       -0.0020
     27 C         138.7104  138.7982  164.1790 C.ar    1  UNL1       -0.0202
     28 C         139.6835  137.7990  163.6271 C.ar    1  UNL1       -0.0019
     29 C         139.7810  137.5866  162.1454 C.ar    1  UNL1        0.0293
     30 C         138.9055  138.3735  161.2157 C.ar    1  UNL1        0.1401
     31 F         139.0031  138.1611  159.7340 F       1  UNL1       -0.2042
     32 C         137.9324  139.3728  161.7677 C.ar    1  UNL1        0.0293
     33 C         137.8349  139.5851  163.2493 C.ar    1  UNL1       -0.0019
@<TRIPOS>BOND
     1     1     2    2
     2     2     3   am
     3     3     4    1
     4     4     5    1
     5     5    27    1
     6    27    28   ar
     7    28    29   ar
     8    29    30   ar
     9    30    31    1
    10    30    32   ar
    11    32    33   ar
    12     5     6    1
    13     6     7    1
    14     7     8    1
    15     8     9    1
    16     9    13    1
    17    13    14    1
    18    14    15    1
    19    15    16    1
    20    16    17    1
    21    17    18    1
    22    18    19    1
    23    18    21    1
    24    21    22   ar
    25    22    23   ar
    26    23    24   ar
    27    24    25   ar
    28    25    26   ar
    29     9    10    1
    30    10    11    1
    31     6     2    1
    32    18    13    1
    33    26    21   ar
    34    33    27   ar
    35    11     6    1
    36     3    12    1
    37    19    20    1
@<TRIPOS>MOLECULE
*****
 33 37 0 0 0
SMALL
GASTEIGER

@<TRIPOS>ATOM
      1 O         138.4334  138.5601  164.8037 O.2     1  UNL1       -0.2751
      2 C         138.7436  139.1049  166.1663 C.2     1  UNL1        0.2220
      3 N         137.9882  138.8078  167.4276 N.am    1  UNL1       -0.3040
      4 C         138.6415  139.5619  168.5478 C.3     1  UNL1        0.0941
      5 C         139.8007  140.3252  167.9786 C.3     1  UNL1        0.0501
      6 C         139.8639  140.0427  166.5067 C.3     1  UNL1        0.0768
      7 C         140.9328  140.9745  166.9956 C.3     1  UNL1        0.0263
      8 C         141.9393  141.5319  166.0332 C.3     1  UNL1        0.0726
      9 N         141.8769  141.1576  164.5820 N.3     1  UNL1       -0.2716
     10 C         140.8079  140.2258  164.0932 C.3     1  UNL1        0.0726
     11 C         139.8014  139.6684  165.0555 C.3     1  UNL1        0.0263
     12 H         137.2018  138.2209  167.5065 H       1  UNL1        0.1494
     13 C         142.8834  141.7150  163.6196 C.3     1  UNL1        0.0861
     14 C         144.1948  141.0157  163.4171 C.3     1  UNL1        0.0187
     15 C         145.2014  141.5731  162.4548 C.3     1  UNL1        0.0016
     16 C         144.8965  142.8300  161.6949 C.3     1  UNL1        0.0028
     17 C         143.5850  143.5294  161.8974 C.3     1  UNL1        0.0325
     18 C         142.5785  142.9719  162.8598 C.3     1  UNL1        0.1202
     19 O         141.8342  144.1809  162.3758 O.3     1  UNL1       -0.3814
     20 H         142.3769  144.6567  161.7278 H       1  UNL1        0.2107
     21 C         141.3135  142.8343  163.6541 C.ar    1  UNL1        0.0030
     22 C         140.1538  142.0677  163.0906 C.ar    1  UNL1       -0.0020
     23 C         138.8888  141.9301  163.8849 C.ar    1  UNL1       -0.0002
     24 C         138.7835  142.5590  165.2426 C.ar    1  UNL1       -0.0000
     25 C         139.9432  143.3256  165.8060 C.ar    1  UNL1       -0.0002
     26 C         141.2082  143.4632  165.0117 C.ar    1  UNL1       -0.0020
     27 C         140.7331  141.2146  168.7464 C.ar    1  UNL1       -0.0202
     28 C         140.3226  142.6169  169.0855 C.ar    1  UNL1       -0.0019
     29 C         141.2549  143.5064  169.8534 C.ar    1  UNL1        0.0293
     30 C         142.5977  142.9935  170.2822 C.ar    1  UNL1        0.1401
     31 F         143.5301  143.8829  171.0500 F       1  UNL1       -0.2042
     32 C         143.0082  141.5911  169.9431 C.ar    1  UNL1        0.0293
     33 C         142.0759  140.7017  169.1752 C.ar    1  UNL1       -0.0019
@<TRIPOS>BOND
     1     1     2    2
     2     2     3   am
     3     3     4    1
     4     4     5    1
     5     5    27    1
     6    27    28   ar
     7    28    29   ar
     8    29    30   ar
     9    30    31    1
    10    30    32   ar
    11    32    33   ar
    12     5     6    1
    13     6     7    1
    14     7     8    1
    15     8     9    1
    16     9    13    1
    17    13    14    1
    18    14    15    1
    19    15    16    1
    20    16    17    1
    21    17    18    1
    22    18    19    1
    23    18    21    1
    24    21    22   ar
    25    22    23   ar
    26    23    24   ar
    27    24    25   ar
    28    25    26   ar
    29     9    10    1
    30    10    11    1
    31     6     2    1
    32    18    13    1
    33    26    21   ar
    34    33    27   ar
    35    11     6    1
    36     3    12    1
    37    19    20    1
@<TRIPOS>MOLECULE
*****
 33 37 0 0 0
SMALL
GASTEIGER

@<TRIPOS>ATOM
      1 O         145.9657  140.6775  163.6226 O.2     1  UNL1       -0.2751
      2 C         144.9645  139.9174  164.4408 C.2     1  UNL1        0.2220
      3 N         145.2614  138.7534  165.3392 N.am    1  UNL1       -0.3040
      4 C         143.9708  138.3044  165.9579 C.3     1  UNL1        0.0941
      5 C         142.8762  139.1909  165.4419 C.3     1  UNL1        0.0501
      6 C         143.4903  140.1877  164.5043 C.3     1  UNL1        0.0768
      7 C         142.0069  140.3378  164.6683 C.3     1  UNL1        0.0263
      8 C         141.2754  141.4157  163.9247 C.3     1  UNL1        0.0726
      9 N         142.0273  142.3436  163.0171 N.3     1  UNL1       -0.2716
     10 C         143.5107  142.1935  162.8531 C.3     1  UNL1        0.0726
     11 C         144.2422  141.1156  163.5966 C.3     1  UNL1        0.0263
     12 H         146.1477  138.3543  165.4953 H       1  UNL1        0.1494
     13 C         141.2957  143.4215  162.2735 C.3     1  UNL1        0.0861
     14 C         140.7073  143.1349  160.9239 C.3     1  UNL1        0.0187
     15 C         139.9757  144.2128  160.1803 C.3     1  UNL1        0.0016
     16 C         139.8326  145.5774  160.7864 C.3     1  UNL1        0.0028
     17 C         140.4211  145.8641  162.1361 C.3     1  UNL1        0.0325
     18 C         141.1527  144.7862  162.8796 C.3     1  UNL1        0.1202
     19 O         141.2789  145.9122  163.8625 O.3     1  UNL1       -0.3814
     20 H         140.8397  146.7012  163.5084 H       1  UNL1        0.2107
     21 C         141.9281  144.0993  163.9645 C.ar    1  UNL1        0.0030
     22 C         143.4275  144.1413  163.9564 C.ar    1  UNL1       -0.0020
     23 C         144.2029  143.4544  165.0412 C.ar    1  UNL1       -0.0002
     24 C         143.4790  142.7255  166.1342 C.ar    1  UNL1       -0.0000
     25 C         141.9795  142.6835  166.1423 C.ar    1  UNL1       -0.0002
     26 C         141.2041  143.3704  165.0574 C.ar    1  UNL1       -0.0020
     27 C         141.4228  139.0969  165.8006 C.ar    1  UNL1       -0.0202
     28 C         140.8973  139.8292  166.9995 C.ar    1  UNL1       -0.0019
     29 C         139.4439  139.7353  167.3582 C.ar    1  UNL1        0.0293
     30 C         138.5159  138.9090  166.5179 C.ar    1  UNL1        0.1401
     31 F         137.0624  138.8151  166.8766 F       1  UNL1       -0.2042
     32 C         139.0414  138.1766  165.3188 C.ar    1  UNL1        0.0293
     33 C         140.4948  138.2706  164.9602 C.ar    1  UNL1       -0.0019
@<TRIPOS>BOND
     1     1     2    2
     2     2     3   am
     3     3     4    1
     4     4     5    1
     5     5    27    1
     6    27    28   ar
     7    28    29   ar
     8    29    30   ar
     9    30    31    1
    10    30    32   ar
    11    32    33   ar
    12     5     6    1
    13     6     7    1
    14     7     8    1
    15     8     9    1
    16     9    13    1
    17    13    14    1
    18    14    15    1
    19    15    16    1
    20    16    17    1
    21    17    18    1
    22    18    19    1
    23    18    21    1
    24    21    22   ar
    25    22    23   ar
    26    23    24   ar
    27    24    25   ar
    28    25    26   ar
    29     9    10    1
    30    10    11    1
    31     6     2    1
    32    18    13    1
    33    26    21   ar
    34    33    27   ar
    35    11     6    1
    36     3    12    1
    37    19    20    1
@<TRIPOS>MOLECULE
*****
 33 37 0 0 0
SMALL
GASTEIGER

@<TRIPOS>ATOM
      1 O         143.7342  138.7835  164.3137 O.2     1  UNL1       -0.2751
      2 C         143.3217  139.0122  165.7376 C.2     1  UNL1        0.2220
      3 N         143.7195  138.1742  166.9163 N.am    1  UNL1       -0.3040
      4 C         143.0825  138.7633  168.1400 C.3     1  UNL1        0.0941
      5 C         142.2910  139.9655  167.7174 C.3     1  UNL1        0.0501
      6 C         142.4388  140.1193  166.2327 C.3     1  UNL1        0.0768
      7 C         141.5746  141.1657  166.8715 C.3     1  UNL1        0.0263
      8 C         140.9494  142.2383  166.0296 C.3     1  UNL1        0.0726
      9 N         141.1884  142.2644  164.5490 N.3     1  UNL1       -0.2716
     10 C         142.0526  141.2180  163.9102 C.3     1  UNL1        0.0726
     11 C         142.6778  140.1454  164.7521 C.3     1  UNL1        0.0263
     12 H         144.2972  137.3774  166.8912 H       1  UNL1        0.1494
     13 C         140.5631  143.3370  163.7072 C.3     1  UNL1        0.0861
     14 C         141.2889  144.6297  163.4787 C.3     1  UNL1        0.0187
     15 C         140.6637  145.7023  162.6369 C.3     1  UNL1        0.0016
     16 C         139.3126  145.4822  162.0236 C.3     1  UNL1        0.0028
     17 C         138.5868  144.1894  162.2521 C.3     1  UNL1        0.0325
     18 C         139.2121  143.1169  163.0939 C.3     1  UNL1        0.1202
     19 O         137.9227  142.4430  162.7289 O.3     1  UNL1       -0.3814
     20 H         137.3962  143.0341  162.1683 H       1  UNL1        0.2107
     21 C         139.3895  141.8103  163.8089 C.ar    1  UNL1        0.0030
     22 C         138.8973  141.6531  165.2171 C.ar    1  UNL1       -0.0020
     23 C         139.0747  140.3465  165.9322 C.ar    1  UNL1       -0.0002
     24 C         139.7445  139.1971  165.2392 C.ar    1  UNL1       -0.0000
     25 C         140.2367  139.3543  163.8310 C.ar    1  UNL1       -0.0002
     26 C         140.0593  140.6609  163.1159 C.ar    1  UNL1       -0.0020
     27 C         141.4920  140.8571  168.6210 C.ar    1  UNL1       -0.0202
     28 C         142.0614  142.1683  169.0756 C.ar    1  UNL1       -0.0019
     29 C         141.2624  143.0600  169.9792 C.ar    1  UNL1        0.0293
     30 C         139.8941  142.6405  170.4282 C.ar    1  UNL1        0.1401
     31 F         139.0951  143.5322  171.3318 F       1  UNL1       -0.2042
     32 C         139.3247  141.3292  169.9737 C.ar    1  UNL1        0.0293
     33 C         140.1237  140.4376  169.0701 C.ar    1  UNL1       -0.0019
@<TRIPOS>BOND
     1     1     2    2
     2     2     3   am
     3     3     4    1
     4     4     5    1
     5     5    27    1
     6    27    28   ar
     7    28    29   ar
     8    29    30   ar
     9    30    31    1
    10    30    32   ar
    11    32    33   ar
    12     5     6    1
    13     6     7    1
    14     7     8    1
    15     8     9    1
    16     9    13    1
    17    13    14    1
    18    14    15    1
    19    15    16    1
    20    16    17    1
    21    17    18    1
    22    18    19    1
    23    18    21    1
    24    21    22   ar
    25    22    23   ar
    26    23    24   ar
    27    24    25   ar
    28    25    26   ar
    29     9    10    1
    30    10    11    1
    31     6     2    1
    32    18    13    1
    33    26    21   ar
    34    33    27   ar
    35    11     6    1
    36     3    12    1
    37    19    20    1
@<TRIPOS>MOLECULE
*****
 33 37 0 0 0
SMALL
GASTEIGER

@<TRIPOS>ATOM
      1 O         138.3332  138.6622  164.5313 O.2     1  UNL1       -0.2751
      2 C         138.6797  139.1231  165.9160 C.2     1  UNL1        0.2220
      3 N         137.9660  138.7379  167.1778 N.am    1  UNL1       -0.3040
      4 C         138.6460  139.4269  168.3238 C.3     1  UNL1        0.0941
      5 C         139.7800  140.2378  167.7700 C.3     1  UNL1        0.0501
      6 C         139.8008  140.0500  166.2820 C.3     1  UNL1        0.0768
      7 C         140.8754  140.9610  166.7971 C.3     1  UNL1        0.0263
      8 C         141.8468  141.5898  165.8426 C.3     1  UNL1        0.0726
      9 N         141.7436  141.3075  164.3730 N.3     1  UNL1       -0.2716
     10 C         140.6690  140.3966  163.8579 C.3     1  UNL1        0.0726
     11 C         139.6976  139.7678  164.8124 C.3     1  UNL1        0.0263
     12 H         137.1879  138.1383  167.2426 H       1  UNL1        0.1494
     13 C         142.7150  141.9364  163.4185 C.3     1  UNL1        0.0861
     14 C         142.4409  143.3013  162.8601 C.3     1  UNL1        0.0187
     15 C         143.4123  143.9301  161.9056 C.3     1  UNL1        0.0016
     16 C         144.6578  143.1939  161.5096 C.3     1  UNL1        0.0028
     17 C         144.9319  141.8290  162.0680 C.3     1  UNL1        0.0325
     18 C         143.9605  141.2002  163.0225 C.3     1  UNL1        0.1202
     19 O         144.9931  140.1147  162.9491 O.3     1  UNL1       -0.3814
     20 H         145.7061  140.3867  162.3503 H       1  UNL1        0.2107
     21 C         143.3477  140.1945  163.9515 C.ar    1  UNL1        0.0030
     22 C         143.6648  140.2364  165.4170 C.ar    1  UNL1       -0.0020
     23 C         143.0520  139.2307  166.3460 C.ar    1  UNL1       -0.0002
     24 C         142.1221  138.1831  165.8096 C.ar    1  UNL1       -0.0000
     25 C         141.8050  138.1412  164.3440 C.ar    1  UNL1       -0.0002
     26 C         142.4178  139.1469  163.4151 C.ar    1  UNL1       -0.0020
     27 C         140.7269  141.0873  168.5649 C.ar    1  UNL1       -0.0202
     28 C         140.4008  142.5273  168.8296 C.ar    1  UNL1       -0.0019
     29 C         141.3477  143.3767  169.6245 C.ar    1  UNL1        0.0293
     30 C         142.6206  142.7863  170.1545 C.ar    1  UNL1        0.1401
     31 F         143.5675  143.6357  170.9494 F       1  UNL1       -0.2042
     32 C         142.9467  141.3462  169.8898 C.ar    1  UNL1        0.0293
     33 C         141.9998  140.4968  169.0949 C.ar    1  UNL1       -0.0019
@<TRIPOS>BOND
     1     1     2    2
     2     2     3   am
     3     3     4    1
     4     4     5    1
     5     5    27    1
     6    27    28   ar
     7    28    29   ar
     8    29    30   ar
     9    30    31    1
    10    30    32   ar
    11    32    33   ar
    12     5     6    1
    13     6     7    1
    14     7     8    1
    15     8     9    1
    16     9    13    1
    17    13    14    1
    18    14    15    1
    19    15    16    1
    20    16    17    1
    21    17    18    1
    22    18    19    1
    23    18    21    1
    24    21    22   ar
    25    22    23   ar
    26    23    24   ar
    27    24    25   ar
    28    25    26   ar
    29     9    10    1
    30    10    11    1
    31     6     2    1
    32    18    13    1
    33    26    21   ar
    34    33    27   ar
    35    11     6    1
    36     3    12    1
    37    19    20    1
@<TRIPOS>MOLECULE
*****
 33 37 0 0 0
SMALL
GASTEIGER

@<TRIPOS>ATOM
      1 O         137.5895  139.2730  166.4684 O.2     1  UNL1       -0.2751
      2 C         139.0412  139.5829  166.6835 C.2     1  UNL1        0.2220
      3 N         139.7608  139.5660  167.9995 N.am    1  UNL1       -0.3040
      4 C         141.1927  139.9368  167.7497 C.3     1  UNL1        0.0941
      5 C         141.3580  140.1828  166.2792 C.3     1  UNL1        0.0501
      6 C         140.0283  139.9641  165.6203 C.3     1  UNL1        0.0768
      7 C         141.1226  140.3542  164.6715 C.3     1  UNL1        0.0263
      8 C         140.8312  140.4924  163.2066 C.3     1  UNL1        0.0726
      9 N         139.4455  140.2404  162.6905 N.3     1  UNL1       -0.2716
     10 C         138.3512  139.8502  163.6393 C.3     1  UNL1        0.0726
     11 C         138.6426  139.7121  165.1042 C.3     1  UNL1        0.0263
     12 H         139.3631  139.3496  168.8738 H       1  UNL1        0.1494
     13 C         139.1541  140.3786  161.2255 C.3     1  UNL1        0.0861
     14 C         139.3489  139.2078  160.3084 C.3     1  UNL1        0.0187
     15 C         139.0576  139.3460  158.8434 C.3     1  UNL1        0.0016
     16 C         138.5713  140.6550  158.2956 C.3     1  UNL1        0.0028
     17 C         138.3765  141.8259  159.2129 C.3     1  UNL1        0.0325
     18 C         138.6679  141.6876  160.6778 C.3     1  UNL1        0.1202
     19 O         138.2301  143.1216  160.6335 O.3     1  UNL1       -0.3814
     20 H         138.0023  143.3622  159.7218 H       1  UNL1        0.2107
     21 C         138.8072  142.0474  162.1273 C.ar    1  UNL1        0.0030
     22 C         140.1061  142.5920  162.6434 C.ar    1  UNL1       -0.0020
     23 C         140.2455  142.9518  164.0929 C.ar    1  UNL1       -0.0002
     24 C         139.0860  142.7670  165.0264 C.ar    1  UNL1       -0.0000
     25 C         137.7871  142.2224  164.5103 C.ar    1  UNL1       -0.0002
     26 C         137.6478  141.8626  163.0608 C.ar    1  UNL1       -0.0020
     27 C         142.6297  140.5781  165.5889 C.ar    1  UNL1       -0.0202
     28 C         143.0366  142.0209  165.5352 C.ar    1  UNL1       -0.0019
     29 C         144.3083  142.4162  164.8449 C.ar    1  UNL1        0.0293
     30 C         145.1731  141.3688  164.2083 C.ar    1  UNL1        0.1401
     31 F         146.4447  141.7641  163.5180 F       1  UNL1       -0.2042
     32 C         144.7661  139.9260  164.2621 C.ar    1  UNL1        0.0293
     33 C         143.4944  139.5307  164.9524 C.ar    1  UNL1       -0.0019
@<TRIPOS>BOND
     1     1     2    2
     2     2     3   am
     3     3     4    1
     4     4     5    1
     5     5    27    1
     6    27    28   ar
     7    28    29   ar
     8    29    30   ar
     9    30    31    1
    10    30    32   ar
    11    32    33   ar
    12     5     6    1
    13     6     7    1
    14     7     8    1
    15     8     9    1
    16     9    13    1
    17    13    14    1
    18    14    15    1
    19    15    16    1
    20    16    17    1
    21    17    18    1
    22    18    19    1
    23    18    21    1
    24    21    22   ar
    25    22    23   ar
    26    23    24   ar
    27    24    25   ar
    28    25    26   ar
    29     9    10    1
    30    10    11    1
    31     6     2    1
    32    18    13    1
    33    26    21   ar
    34    33    27   ar
    35    11     6    1
    36     3    12    1
    37    19    20    1
@<TRIPOS>MOLECULE
*****
 33 37 0 0 0
SMALL
GASTEIGER

@<TRIPOS>ATOM
      1 O         138.0875  139.3301  167.2534 O.2     1  UNL1       -0.2751
      2 C         139.5558  139.6325  167.3046 C.2     1  UNL1        0.2220
      3 N         140.4184  139.6100  168.5316 N.am    1  UNL1       -0.3040
      4 C         141.8150  139.9742  168.1231 C.3     1  UNL1        0.0941
      5 C         141.8156  140.2217  166.6436 C.3     1  UNL1        0.0501
      6 C         140.4193  140.0105  166.1377 C.3     1  UNL1        0.0768
      7 C         141.4022  140.3968  165.0726 C.3     1  UNL1        0.0263
      8 C         140.9491  140.5387  163.6497 C.3     1  UNL1        0.0726
      9 N         139.5130  140.2944  163.2921 N.3     1  UNL1       -0.2716
     10 C         138.5300  139.9081  164.3573 C.3     1  UNL1        0.0726
     11 C         138.9832  139.7661  165.7801 C.3     1  UNL1        0.0263
     12 H         140.1202  139.3942  169.4447 H       1  UNL1        0.1494
     13 C         139.0598  140.4363  161.8692 C.3     1  UNL1        0.0861
     14 C         138.6201  141.7739  161.3520 C.3     1  UNL1        0.0187
     15 C         138.1669  141.9158  159.9291 C.3     1  UNL1        0.0016
     16 C         138.1535  140.7201  159.0235 C.3     1  UNL1        0.0028
     17 C         138.5932  139.3825  159.5407 C.3     1  UNL1        0.0325
     18 C         139.0463  139.2406  160.9636 C.3     1  UNL1        0.1202
     19 O         139.2100  137.8249  160.4957 O.3     1  UNL1       -0.3814
     20 H         138.9472  137.7597  159.5643 H       1  UNL1        0.2107
     21 C         139.5563  138.6071  162.2239 C.ar    1  UNL1        0.0030
     22 C         141.0324  138.5245  162.4777 C.ar    1  UNL1       -0.0020
     23 C         141.5424  137.8909  163.7381 C.ar    1  UNL1       -0.0002
     24 C         140.5764  137.3399  164.7447 C.ar    1  UNL1       -0.0000
     25 C         139.1003  137.4225  164.4909 C.ar    1  UNL1       -0.0002
     26 C         138.5903  138.0561  163.2305 C.ar    1  UNL1       -0.0020
     27 C         143.0038  140.6118  165.8154 C.ar    1  UNL1       -0.0202
     28 C         143.8746  139.5526  165.2074 C.ar    1  UNL1       -0.0019
     29 C         145.0629  139.9427  164.3792 C.ar    1  UNL1        0.0293
     30 C         145.3803  141.3921  164.1590 C.ar    1  UNL1        0.1401
     31 F         146.5685  141.7823  163.3308 F       1  UNL1       -0.2042
     32 C         144.5094  142.4515  164.7670 C.ar    1  UNL1        0.0293
     33 C         143.3212  142.0612  165.5952 C.ar    1  UNL1       -0.0019
@<TRIPOS>BOND
     1     1     2    2
     2     2     3   am
     3     3     4    1
     4     4     5    1
     5     5    27    1
     6    27    28   ar
     7    28    29   ar
     8    29    30   ar
     9    30    31    1
    10    30    32   ar
    11    32    33   ar
    12     5     6    1
    13     6     7    1
    14     7     8    1
    15     8     9    1
    16     9    13    1
    17    13    14    1
    18    14    15    1
    19    15    16    1
    20    16    17    1
    21    17    18    1
    22    18    19    1
    23    18    21    1
    24    21    22   ar
    25    22    23   ar
    26    23    24   ar
    27    24    25   ar
    28    25    26   ar
    29     9    10    1
    30    10    11    1
    31     6     2    1
    32    18    13    1
    33    26    21   ar
    34    33    27   ar
    35    11     6    1
    36     3    12    1
    37    19    20    1
@<TRIPOS>MOLECULE
*****
 33 37 0 0 0
SMALL
GASTEIGER

@<TRIPOS>ATOM
      1 O         145.5520  139.5838  164.6421 O.2     1  UNL1       -0.2751
      2 C         145.1255  140.8322  163.9283 C.2     1  UNL1        0.2220
      3 N         146.0120  141.7319  163.1193 N.am    1  UNL1       -0.3040
      4 C         145.1719  142.8559  162.5891 C.3     1  UNL1        0.0941
      5 C         143.7661  142.6508  163.0706 C.3     1  UNL1        0.0501
      6 C         143.7374  141.4001  163.8982 C.3     1  UNL1        0.0768
      7 C         142.4073  142.0830  163.7784 C.3     1  UNL1        0.0263
      8 C         141.2022  141.5022  164.4568 C.3     1  UNL1        0.0726
      9 N         141.3272  140.2385  165.2551 N.3     1  UNL1       -0.2716
     10 C         142.6572  139.5555  165.3750 C.3     1  UNL1        0.0726
     11 C         143.8623  140.1363  164.6965 C.3     1  UNL1        0.0263
     12 H         146.9760  141.6067  162.9635 H       1  UNL1        0.1494
     13 C         140.1220  139.6577  165.9336 C.3     1  UNL1        0.0861
     14 C         139.7419  140.1171  167.3100 C.3     1  UNL1        0.0187
     15 C         138.5367  139.5363  167.9884 C.3     1  UNL1        0.0016
     16 C         137.7116  138.4960  167.2905 C.3     1  UNL1        0.0028
     17 C         138.0917  138.0366  165.9140 C.3     1  UNL1        0.0325
     18 C         139.2969  138.6174  165.2356 C.3     1  UNL1        0.1202
     19 O         138.8347  137.6639  164.1739 O.3     1  UNL1       -0.3814
     20 H         138.0386  137.2013  164.4792 H       1  UNL1        0.2107
     21 C         140.3415  138.8671  164.1885 C.ar    1  UNL1        0.0030
     22 C         141.5997  138.0505  164.1747 C.ar    1  UNL1       -0.0020
     23 C         142.6443  138.3002  163.1276 C.ar    1  UNL1       -0.0002
     24 C         142.4309  139.3664  162.0943 C.ar    1  UNL1       -0.0000
     25 C         141.1726  140.1829  162.1082 C.ar    1  UNL1       -0.0002
     26 C         140.1280  139.9333  163.1553 C.ar    1  UNL1       -0.0020
     27 C         142.5947  143.5402  162.7761 C.ar    1  UNL1       -0.0202
     28 C         141.8143  143.3575  161.5082 C.ar    1  UNL1       -0.0019
     29 C         140.6430  144.2469  161.2137 C.ar    1  UNL1        0.0293
     30 C         140.2519  145.3191  162.1871 C.ar    1  UNL1        0.1401
     31 F         139.0806  146.2086  161.8926 F       1  UNL1       -0.2042
     32 C         141.0324  145.5019  163.4551 C.ar    1  UNL1        0.0293
     33 C         142.2037  144.6124  163.7495 C.ar    1  UNL1       -0.0019
@<TRIPOS>BOND
     1     1     2    2
     2     2     3   am
     3     3     4    1
     4     4     5    1
     5     5    27    1
     6    27    28   ar
     7    28    29   ar
     8    29    30   ar
     9    30    31    1
    10    30    32   ar
    11    32    33   ar
    12     5     6    1
    13     6     7    1
    14     7     8    1
    15     8     9    1
    16     9    13    1
    17    13    14    1
    18    14    15    1
    19    15    16    1
    20    16    17    1
    21    17    18    1
    22    18    19    1
    23    18    21    1
    24    21    22   ar
    25    22    23   ar
    26    23    24   ar
    27    24    25   ar
    28    25    26   ar
    29     9    10    1
    30    10    11    1
    31     6     2    1
    32    18    13    1
    33    26    21   ar
    34    33    27   ar
    35    11     6    1
    36     3    12    1
    37    19    20    1
