@<TRIPOS>MOLECULE
*****
 37 40 0 0 0
SMALL
GASTEIGER

@<TRIPOS>ATOM
      1 N         140.6201  141.7291  165.3206 N.ar    1  UNL1       -0.3063
      2 C         141.8417  141.9992  166.1480 C.ar    1  UNL1        0.1240
      3 C         142.7461  142.8993  165.3594 C.ar    1  UNL1        0.1156
      4 C         142.0834  143.1855  164.0445 C.ar    1  UNL1        0.0966
      5 C         140.7695  142.4622  164.0205 C.ar    1  UNL1        0.1349
      6 C         139.8788  142.5647  162.8180 C.ar    1  UNL1        0.2819
      7 O         138.5649  141.8414  162.7939 O.2     1  UNL1       -0.2652
      8 N         140.3021  143.3904  161.6393 N.ar    1  UNL1       -0.2417
      9 C         141.6160  144.1136  161.6633 C.ar    1  UNL1        0.3342
     10 O         142.0393  144.9394  160.4847 O.2     1  UNL1       -0.2462
     11 N         142.5066  144.0112  162.8659 N.ar    1  UNL1       -0.2770
     12 C         143.8206  144.7344  162.8899 C.3     1  UNL1        0.1351
     13 N         142.1116  141.4634  167.5228 N.pl3   1  UNL1       -0.2926
     14 C         142.3168  139.9916  167.7272 C.3     1  UNL1        0.0922
     15 C         142.5867  139.4556  169.1020 C.3     1  UNL1        0.0229
     16 C         142.6513  140.3915  170.2724 C.3     1  UNL1        0.0190
     17 C         142.4461  141.8633  170.0680 C.3     1  UNL1        0.0709
     18 N         142.5107  142.7992  171.2385 N.3     1  UNL1       -0.3208
     19 C         142.1762  142.3992  168.6933 C.3     1  UNL1        0.1075
     20 H         142.3495  143.7544  170.9193 H       1  UNL1        0.1189
     21 H         143.4313  142.7368  171.6733 H       1  UNL1        0.1189
     22 C         144.0790  143.4215  165.8071 C.1     1  UNL1        0.1047
     23 N         145.4120  143.9438  166.2548 N.1     1  UNL1       -0.1907
     24 C         139.4539  140.8756  165.7226 C.3     1  UNL1        0.1332
     25 C         138.4137  137.0533  165.4828 C.3     1  UNL1        0.0261
     26 C         138.5132  138.4670  165.9744 C.2     1  UNL1       -0.0460
     27 C         137.7717  138.8856  167.2093 C.3     1  UNL1        0.0261
     28 C         139.3543  139.4620  165.2311 C.2     1  UNL1       -0.0102
     29 C         139.4114  143.4929  160.4367 C.3     1  UNL1        0.1600
     30 C         139.6010  142.5557  159.2810 C.ar    1  UNL1        0.0916
     31 N         139.4836  141.0748  159.4892 N.ar    1  UNL1       -0.2455
     32 C         139.6732  140.1376  158.3335 C.ar    1  UNL1        0.0986
     33 C         139.9802  140.6813  156.9695 C.ar    1  UNL1        0.0213
     34 C         140.0976  142.1621  156.7613 C.ar    1  UNL1        0.0131
     35 C         139.9080  143.0993  157.9171 C.ar    1  UNL1        0.0839
     36 C         140.0254  144.5802  157.7089 C.1     1  UNL1        0.1017
     37 N         140.1427  146.0610  157.5008 N.1     1  UNL1       -0.1908
@<TRIPOS>BOND
     1    25    26    1
     2    26    27    1
     3    26    28    2
     4    28    24    1
     5    24     1    1
     6     1     2   ar
     7     2    13    1
     8    13    14    1
     9    14    15    1
    10    15    16    1
    11    16    17    1
    12    17    18    1
    13    17    19    1
    14     2     3   ar
    15     3    22    1
    16    22    23    3
    17     3     4   ar
    18     4     5   ar
    19     5     6   ar
    20     6     7    2
    21     6     8   ar
    22     8    29    1
    23    29    30    1
    24    30    31   ar
    25    31    32   ar
    26    32    33   ar
    27    33    34   ar
    28    34    35   ar
    29    35    36    1
    30    36    37    3
    31     8     9   ar
    32     9    10    2
    33     9    11   ar
    34    11    12    1
    35     5     1   ar
    36    35    30   ar
    37    19    13    1
    38    11     4   ar
    39    18    20    1
    40    18    21    1
@<TRIPOS>MOLECULE
*****
 37 40 0 0 0
SMALL
GASTEIGER

@<TRIPOS>ATOM
      1 N         140.6607  138.9709  162.8575 N.ar    1  UNL1       -0.3063
      2 C         139.7865  139.9133  163.6306 C.ar    1  UNL1        0.1240
      3 C         139.3485  141.0068  162.7019 C.ar    1  UNL1        0.1156
      4 C         139.9520  140.7401  161.3547 C.ar    1  UNL1        0.0966
      5 C         140.7629  139.4819  161.4509 C.ar    1  UNL1        0.1349
      6 C         141.4896  138.9640  160.2453 C.ar    1  UNL1        0.2819
      7 O         142.3006  137.7057  160.3414 O.2     1  UNL1       -0.2652
      8 N         141.4054  139.7045  158.9434 N.ar    1  UNL1       -0.2417
      9 C         140.5946  140.9626  158.8473 C.ar    1  UNL1        0.3342
     10 O         140.5104  141.7031  157.5454 O.2     1  UNL1       -0.2462
     11 N         139.8678  141.4805  160.0529 N.ar    1  UNL1       -0.2770
     12 C         139.0569  142.7387  159.9567 C.3     1  UNL1        0.1351
     13 N         139.4155  139.7848  165.0783 N.pl3   1  UNL1       -0.2926
     14 C         140.1034  140.6326  166.1069 C.3     1  UNL1        0.0922
     15 C         139.7324  140.5043  167.5547 C.3     1  UNL1        0.0229
     16 C         138.6736  139.5280  167.9738 C.3     1  UNL1        0.0190
     17 C         137.9857  138.6802  166.9452 C.3     1  UNL1        0.0709
     18 N         136.9268  137.7039  167.3643 N.3     1  UNL1       -0.3208
     19 C         138.3567  138.8086  165.4974 C.3     1  UNL1        0.1075
     20 H         136.5695  137.2164  166.5427 H       1  UNL1        0.1189
     21 H         136.1644  138.2045  167.8209 H       1  UNL1        0.1189
     22 C         138.4627  142.1637  163.0578 C.1     1  UNL1        0.1047
     23 N         137.5768  143.3206  163.4138 N.1     1  UNL1       -0.1907
     24 C         141.3172  137.7345  163.3963 C.3     1  UNL1        0.1332
     25 C         143.5041  138.4145  166.6374 C.3     1  UNL1        0.0261
     26 C         143.0277  138.4518  165.2156 C.2     1  UNL1       -0.0460
     27 C         143.7851  139.2437  164.1913 C.3     1  UNL1        0.0261
     28 C         141.7937  137.6972  164.8181 C.2     1  UNL1       -0.0102
     29 C         142.1322  139.1866  157.7377 C.3     1  UNL1        0.1600
     30 C         141.4295  138.2813  156.7699 C.ar    1  UNL1        0.0916
     31 N         139.9525  138.0516  156.8948 N.ar    1  UNL1       -0.2455
     32 C         139.2498  137.1464  155.9270 C.ar    1  UNL1        0.0986
     33 C         140.0242  136.4707  154.8342 C.ar    1  UNL1        0.0213
     34 C         141.5011  136.7004  154.7094 C.ar    1  UNL1        0.0131
     35 C         142.2039  137.6057  155.6772 C.ar    1  UNL1        0.0839
     36 C         143.6809  137.8354  155.5524 C.1     1  UNL1        0.1017
     37 N         145.1579  138.0651  155.4275 N.1     1  UNL1       -0.1908
@<TRIPOS>BOND
     1    25    26    1
     2    26    27    1
     3    26    28    2
     4    28    24    1
     5    24     1    1
     6     1     2   ar
     7     2    13    1
     8    13    14    1
     9    14    15    1
    10    15    16    1
    11    16    17    1
    12    17    18    1
    13    17    19    1
    14     2     3   ar
    15     3    22    1
    16    22    23    3
    17     3     4   ar
    18     4     5   ar
    19     5     6   ar
    20     6     7    2
    21     6     8   ar
    22     8    29    1
    23    29    30    1
    24    30    31   ar
    25    31    32   ar
    26    32    33   ar
    27    33    34   ar
    28    34    35   ar
    29    35    36    1
    30    36    37    3
    31     8     9   ar
    32     9    10    2
    33     9    11   ar
    34    11    12    1
    35     5     1   ar
    36    35    30   ar
    37    19    13    1
    38    11     4   ar
    39    18    20    1
    40    18    21    1
@<TRIPOS>MOLECULE
*****
 37 40 0 0 0
SMALL
GASTEIGER

@<TRIPOS>ATOM
      1 N         138.5529  141.2855  162.7616 N.ar    1  UNL1       -0.3063
      2 C         139.3333  140.3045  163.5854 C.ar    1  UNL1        0.1240
      3 C         140.3421  139.6470  162.6909 C.ar    1  UNL1        0.1156
      4 C         140.1851  140.2217  161.3142 C.ar    1  UNL1        0.0966
      5 C         139.0793  141.2343  161.3580 C.ar    1  UNL1        0.1349
      6 C         138.6946  141.9789  160.1140 C.ar    1  UNL1        0.2819
      7 O         137.5888  142.9915  160.1576 O.2     1  UNL1       -0.2652
      8 N         139.4157  141.7109  158.8262 N.ar    1  UNL1       -0.2417
      9 C         140.5214  140.6984  158.7825 C.ar    1  UNL1        0.3342
     10 O         141.2426  140.4304  157.4948 O.2     1  UNL1       -0.2462
     11 N         140.9062  139.9537  160.0265 N.ar    1  UNL1       -0.2770
     12 C         142.0120  138.9412  159.9828 C.3     1  UNL1        0.1351
     13 N         139.1391  140.0293  165.0471 N.pl3   1  UNL1       -0.2926
     14 C         139.9333  140.7917  166.0658 C.3     1  UNL1        0.0922
     15 C         139.7392  140.5166  167.5276 C.3     1  UNL1        0.0229
     16 C         138.7508  139.4789  167.9705 C.3     1  UNL1        0.0190
     17 C         137.9566  138.7164  166.9518 C.3     1  UNL1        0.0709
     18 N         136.9682  137.6787  167.3948 N.3     1  UNL1       -0.3208
     19 C         138.1507  138.9916  165.4900 C.3     1  UNL1        0.1075
     20 H         136.5220  137.2632  166.5770 H       1  UNL1        0.1189
     21 H         136.2590  138.1145  167.9844 H       1  UNL1        0.1189
     22 C         141.3337  138.5990  163.1010 C.1     1  UNL1        0.1047
     23 N         142.3254  137.5509  163.5111 N.1     1  UNL1       -0.1907
     24 C         137.4412  142.1634  163.2549 C.3     1  UNL1        0.1332
     25 C         138.5030  145.0778  165.7306 C.3     1  UNL1        0.0261
     26 C         138.3272  144.2809  164.4720 C.2     1  UNL1       -0.0460
     27 C         138.8616  144.8045  163.1719 C.3     1  UNL1        0.0261
     28 C         137.6170  142.9603  164.5134 C.2     1  UNL1       -0.0102
     29 C         139.0310  142.4555  157.5822 C.3     1  UNL1        0.1600
     30 C         137.7673  142.1006  156.8562 C.ar    1  UNL1        0.0916
     31 N         137.0523  140.8214  157.1766 N.ar    1  UNL1       -0.2455
     32 C         135.7887  140.4664  156.4506 C.ar    1  UNL1        0.0986
     33 C         135.2400  141.3906  155.4041 C.ar    1  UNL1        0.0213
     34 C         135.9549  142.6697  155.0838 C.ar    1  UNL1        0.0131
     35 C         137.2187  143.0247  155.8098 C.ar    1  UNL1        0.0839
     36 C         137.9337  144.3038  155.4894 C.1     1  UNL1        0.1017
     37 N         138.6486  145.5829  155.1691 N.1     1  UNL1       -0.1908
@<TRIPOS>BOND
     1    25    26    1
     2    26    27    1
     3    26    28    2
     4    28    24    1
     5    24     1    1
     6     1     2   ar
     7     2    13    1
     8    13    14    1
     9    14    15    1
    10    15    16    1
    11    16    17    1
    12    17    18    1
    13    17    19    1
    14     2     3   ar
    15     3    22    1
    16    22    23    3
    17     3     4   ar
    18     4     5   ar
    19     5     6   ar
    20     6     7    2
    21     6     8   ar
    22     8    29    1
    23    29    30    1
    24    30    31   ar
    25    31    32   ar
    26    32    33   ar
    27    33    34   ar
    28    34    35   ar
    29    35    36    1
    30    36    37    3
    31     8     9   ar
    32     9    10    2
    33     9    11   ar
    34    11    12    1
    35     5     1   ar
    36    35    30   ar
    37    19    13    1
    38    11     4   ar
    39    18    20    1
    40    18    21    1
@<TRIPOS>MOLECULE
*****
 37 40 0 0 0
SMALL
GASTEIGER

@<TRIPOS>ATOM
      1 N         142.0098  141.0524  165.6790 N.ar    1  UNL1       -0.3063
      2 C         141.3317  141.0601  167.0169 C.ar    1  UNL1        0.1240
      3 C         140.1671  140.1171  166.9518 C.ar    1  UNL1        0.1156
      4 C         140.1253  139.5265  165.5736 C.ar    1  UNL1        0.0966
      5 C         141.2642  140.1046  164.7870 C.ar    1  UNL1        0.1349
      6 C         141.4752  139.6932  163.3600 C.ar    1  UNL1        0.2819
      7 O         142.6141  140.2712  162.5733 O.2     1  UNL1       -0.2652
      8 N         140.5472  138.7037  162.7197 N.ar    1  UNL1       -0.2417
      9 C         139.4085  138.1257  163.5063 C.ar    1  UNL1        0.3342
     10 O         138.4805  137.1361  162.8661 O.2     1  UNL1       -0.2462
     11 N         139.1975  138.5370  164.9333 N.ar    1  UNL1       -0.2770
     12 C         138.0586  137.9589  165.7200 C.3     1  UNL1        0.1351
     13 N         141.7456  141.8689  168.2105 N.pl3   1  UNL1       -0.2926
     14 C         143.0691  141.6121  168.8681 C.3     1  UNL1        0.0922
     15 C         143.4831  142.4208  170.0617 C.3     1  UNL1        0.0229
     16 C         142.5735  143.4864  170.5976 C.3     1  UNL1        0.0190
     17 C         141.2501  143.7432  169.9400 C.3     1  UNL1        0.0709
     18 N         140.3405  144.8088  170.4759 N.3     1  UNL1       -0.3208
     19 C         140.8361  142.9345  168.7464 C.3     1  UNL1        0.1075
     20 H         139.4913  144.8461  169.9121 H       1  UNL1        0.1189
     21 H         140.8142  145.7113  170.4370 H       1  UNL1        0.1189
     22 C         139.2119  139.8172  168.0688 C.1     1  UNL1        0.1047
     23 N         138.2567  139.5174  169.1858 N.1     1  UNL1       -0.1907
     24 C         143.2208  141.8521  165.2996 C.3     1  UNL1        0.1332
     25 C         143.7228  145.2178  163.2575 C.3     1  UNL1        0.0261
     26 C         143.8737  143.7925  163.7000 C.2     1  UNL1       -0.0460
     27 C         144.8281  142.8823  162.9855 C.3     1  UNL1        0.0261
     28 C         143.0700  143.2774  164.8571 C.2     1  UNL1       -0.0102
     29 C         140.7582  138.2923  161.2927 C.3     1  UNL1        0.1600
     30 C         139.9978  138.9754  160.1949 C.ar    1  UNL1        0.0916
     31 N         138.7297  139.7131  160.5077 N.ar    1  UNL1       -0.2455
     32 C         137.9692  140.3962  159.4100 C.ar    1  UNL1        0.0986
     33 C         138.4768  140.3415  157.9994 C.ar    1  UNL1        0.0213
     34 C         139.7448  139.6039  157.6867 C.ar    1  UNL1        0.0131
     35 C         140.5054  138.9207  158.7845 C.ar    1  UNL1        0.0839
     36 C         141.7734  138.1830  158.4718 C.1     1  UNL1        0.1017
     37 N         143.0414  137.4453  158.1591 N.1     1  UNL1       -0.1908
@<TRIPOS>BOND
     1    25    26    1
     2    26    27    1
     3    26    28    2
     4    28    24    1
     5    24     1    1
     6     1     2   ar
     7     2    13    1
     8    13    14    1
     9    14    15    1
    10    15    16    1
    11    16    17    1
    12    17    18    1
    13    17    19    1
    14     2     3   ar
    15     3    22    1
    16    22    23    3
    17     3     4   ar
    18     4     5   ar
    19     5     6   ar
    20     6     7    2
    21     6     8   ar
    22     8    29    1
    23    29    30    1
    24    30    31   ar
    25    31    32   ar
    26    32    33   ar
    27    33    34   ar
    28    34    35   ar
    29    35    36    1
    30    36    37    3
    31     8     9   ar
    32     9    10    2
    33     9    11   ar
    34    11    12    1
    35     5     1   ar
    36    35    30   ar
    37    19    13    1
    38    11     4   ar
    39    18    20    1
    40    18    21    1
@<TRIPOS>MOLECULE
*****
 37 40 0 0 0
SMALL
GASTEIGER

@<TRIPOS>ATOM
      1 N         142.1426  140.1584  164.8916 N.ar    1  UNL1       -0.3063
      2 C         142.3904  141.5540  165.3826 C.ar    1  UNL1        0.1240
      3 C         142.9590  142.3511  164.2462 C.ar    1  UNL1        0.1156
      4 C         143.0627  141.4481  163.0529 C.ar    1  UNL1        0.0966
      5 C         142.5581  140.0930  163.4518 C.ar    1  UNL1        0.1349
      6 C         142.5421  138.9746  162.4524 C.ar    1  UNL1        0.2819
      7 O         142.0376  137.6194  162.8513 O.2     1  UNL1       -0.2652
      8 N         143.0308  139.2113  161.0541 N.ar    1  UNL1       -0.2417
      9 C         143.5353  140.5663  160.6552 C.ar    1  UNL1        0.3342
     10 O         144.0239  140.8031  159.2569 O.2     1  UNL1       -0.2462
     11 N         143.5513  141.6848  161.6546 N.ar    1  UNL1       -0.2770
     12 C         144.0558  143.0399  161.2557 C.3     1  UNL1        0.1351
     13 N         142.1176  142.0631  166.7669 N.pl3   1  UNL1       -0.2926
     14 C         140.7456  142.5481  167.1308 C.3     1  UNL1        0.0922
     15 C         140.4726  143.0572  168.5151 C.3     1  UNL1        0.0229
     16 C         141.5717  143.0814  169.5356 C.3     1  UNL1        0.0190
     17 C         142.9437  142.5964  169.1717 C.3     1  UNL1        0.0709
     18 N         144.0428  142.6205  170.1922 N.3     1  UNL1       -0.3208
     19 C         143.2167  142.0872  167.7874 C.3     1  UNL1        0.1075
     20 H         144.9008  142.2580  169.7764 H       1  UNL1        0.1189
     21 H         143.7797  142.0406  170.9890 H       1  UNL1        0.1189
     22 C         143.3546  143.7972  164.2947 C.1     1  UNL1        0.1047
     23 N         143.7501  145.2433  164.3431 N.1     1  UNL1       -0.1907
     24 C         141.5784  139.0270  165.6988 C.3     1  UNL1        0.1332
     25 C         137.7501  138.7263  166.7007 C.3     1  UNL1        0.0261
     26 C         139.0381  138.5453  165.9534 C.2     1  UNL1       -0.0460
     27 C         139.0738  137.7018  164.7136 C.3     1  UNL1        0.0261
     28 C         140.2905  139.2079  166.4460 C.2     1  UNL1       -0.0102
     29 C         143.0148  138.0928  160.0546 C.3     1  UNL1        0.1600
     30 C         142.3780  138.2959  158.7118 C.ar    1  UNL1        0.0916
     31 N         143.2270  138.3220  157.4754 N.ar    1  UNL1       -0.2455
     32 C         142.5902  138.5251  156.1326 C.ar    1  UNL1        0.0986
     33 C         141.1044  138.7022  156.0261 C.ar    1  UNL1        0.0213
     34 C         140.2555  138.6762  157.2625 C.ar    1  UNL1        0.0131
     35 C         140.8923  138.4730  158.6054 C.ar    1  UNL1        0.0839
     36 C         140.0434  138.4470  159.8418 C.1     1  UNL1        0.1017
     37 N         139.1946  138.4210  161.0782 N.1     1  UNL1       -0.1908
@<TRIPOS>BOND
     1    25    26    1
     2    26    27    1
     3    26    28    2
     4    28    24    1
     5    24     1    1
     6     1     2   ar
     7     2    13    1
     8    13    14    1
     9    14    15    1
    10    15    16    1
    11    16    17    1
    12    17    18    1
    13    17    19    1
    14     2     3   ar
    15     3    22    1
    16    22    23    3
    17     3     4   ar
    18     4     5   ar
    19     5     6   ar
    20     6     7    2
    21     6     8   ar
    22     8    29    1
    23    29    30    1
    24    30    31   ar
    25    31    32   ar
    26    32    33   ar
    27    33    34   ar
    28    34    35   ar
    29    35    36    1
    30    36    37    3
    31     8     9   ar
    32     9    10    2
    33     9    11   ar
    34    11    12    1
    35     5     1   ar
    36    35    30   ar
    37    19    13    1
    38    11     4   ar
    39    18    20    1
    40    18    21    1
@<TRIPOS>MOLECULE
*****
 37 40 0 0 0
SMALL
GASTEIGER

@<TRIPOS>ATOM
      1 N         139.4485  141.2600  162.9931 N.ar    1  UNL1       -0.3063
      2 C         140.1091  141.1546  161.6506 C.ar    1  UNL1        0.1240
      3 C         141.4283  140.4651  161.8359 C.ar    1  UNL1        0.1156
      4 C         141.5830  140.1444  163.2931 C.ar    1  UNL1        0.0966
      5 C         140.3594  140.6357  164.0082 C.ar    1  UNL1        0.1349
      6 C         140.2327  140.4510  165.4914 C.ar    1  UNL1        0.2819
      7 O         139.0091  140.9422  166.2066 O.2     1  UNL1       -0.2652
      8 N         141.3297  139.7751  166.2594 N.ar    1  UNL1       -0.2417
      9 C         142.5533  139.2838  165.5443 C.ar    1  UNL1        0.3342
     10 O         143.6503  138.6079  166.3123 O.2     1  UNL1       -0.2462
     11 N         142.6799  139.4685  164.0611 N.ar    1  UNL1       -0.2770
     12 C         143.9036  138.9772  163.3459 C.3     1  UNL1        0.1351
     13 N         139.5489  141.6515  160.3508 N.pl3   1  UNL1       -0.2926
     14 C         139.9427  143.0027  159.8321 C.3     1  UNL1        0.0922
     15 C         139.3826  143.4996  158.5323 C.3     1  UNL1        0.0229
     16 C         138.4286  142.6452  157.7513 C.3     1  UNL1        0.0190
     17 C         138.0348  141.2940  158.2701 C.3     1  UNL1        0.0709
     18 N         137.0809  140.4396  157.4890 N.3     1  UNL1       -0.3208
     19 C         138.5950  140.7971  159.5698 C.3     1  UNL1        0.1075
     20 H         136.9262  139.5619  157.9851 H       1  UNL1        0.1189
     21 H         137.4743  140.2451  156.5683 H       1  UNL1        0.1189
     22 C         142.4189  140.1515  160.7541 C.1     1  UNL1        0.1047
     23 N         143.4095  139.8378  159.6723 N.1     1  UNL1       -0.1907
     24 C         138.1116  141.8807  163.2717 C.3     1  UNL1        0.1332
     25 C         138.3995  145.0626  165.6261 C.3     1  UNL1        0.0261
     26 C         138.5724  144.1514  164.4470 C.2     1  UNL1       -0.0460
     27 C         139.3788  144.6000  163.2645 C.3     1  UNL1        0.0261
     28 C         137.9388  142.7918  164.4506 C.2     1  UNL1       -0.0102
     29 C         141.2031  139.5904  167.7427 C.3     1  UNL1        0.1600
     30 C         141.6746  140.6663  168.6754 C.ar    1  UNL1        0.0916
     31 N         143.0157  141.3050  168.4666 N.ar    1  UNL1       -0.2455
     32 C         143.4873  142.3809  169.3994 C.ar    1  UNL1        0.0986
     33 C         142.6178  142.8181  170.5408 C.ar    1  UNL1        0.0213
     34 C         141.2768  142.1795  170.7495 C.ar    1  UNL1        0.0131
     35 C         140.8051  141.1035  169.8168 C.ar    1  UNL1        0.0839
     36 C         139.4641  140.4647  170.0255 C.1     1  UNL1        0.1017
     37 N         138.1231  139.8261  170.2342 N.1     1  UNL1       -0.1908
@<TRIPOS>BOND
     1    25    26    1
     2    26    27    1
     3    26    28    2
     4    28    24    1
     5    24     1    1
     6     1     2   ar
     7     2    13    1
     8    13    14    1
     9    14    15    1
    10    15    16    1
    11    16    17    1
    12    17    18    1
    13    17    19    1
    14     2     3   ar
    15     3    22    1
    16    22    23    3
    17     3     4   ar
    18     4     5   ar
    19     5     6   ar
    20     6     7    2
    21     6     8   ar
    22     8    29    1
    23    29    30    1
    24    30    31   ar
    25    31    32   ar
    26    32    33   ar
    27    33    34   ar
    28    34    35   ar
    29    35    36    1
    30    36    37    3
    31     8     9   ar
    32     9    10    2
    33     9    11   ar
    34    11    12    1
    35     5     1   ar
    36    35    30   ar
    37    19    13    1
    38    11     4   ar
    39    18    20    1
    40    18    21    1
@<TRIPOS>MOLECULE
*****
 37 40 0 0 0
SMALL
GASTEIGER

@<TRIPOS>ATOM
      1 N         142.3484  141.4166  164.3343 N.ar    1  UNL1       -0.3063
      2 C         141.3171  142.0369  165.2297 C.ar    1  UNL1        0.1240
      3 C         140.7326  143.2186  164.5143 C.ar    1  UNL1        0.1156
      4 C         141.4025  143.3287  163.1768 C.ar    1  UNL1        0.0966
      5 C         142.4012  142.2150  163.0656 C.ar    1  UNL1        0.1349
      6 C         143.2296  142.0717  161.8233 C.ar    1  UNL1        0.2819
      7 O         144.2282  140.9580  161.7120 O.2     1  UNL1       -0.2652
      8 N         143.0593  143.0423  160.6923 N.ar    1  UNL1       -0.2417
      9 C         142.0607  144.1559  160.8036 C.ar    1  UNL1        0.3342
     10 O         141.8904  145.1265  159.6725 O.2     1  UNL1       -0.2462
     11 N         141.2323  144.2992  162.0458 N.ar    1  UNL1       -0.2770
     12 C         140.2337  145.4129  162.1571 C.3     1  UNL1        0.1351
     13 N         140.9371  141.5592  166.5999 N.pl3   1  UNL1       -0.2926
     14 C         139.8047  140.5903  166.7691 C.3     1  UNL1        0.0922
     15 C         139.4246  140.1126  168.1394 C.3     1  UNL1        0.0229
     16 C         140.1770  140.6040  169.3403 C.3     1  UNL1        0.0190
     17 C         141.3095  141.5729  169.1711 C.3     1  UNL1        0.0709
     18 N         142.0619  142.0643  170.3721 N.3     1  UNL1       -0.3208
     19 C         141.6896  142.0506  167.8009 C.3     1  UNL1        0.1075
     20 H         142.7923  142.7111  170.0745 H       1  UNL1        0.1189
     21 H         142.4855  141.2722  170.8554 H       1  UNL1        0.1189
     22 C         139.6654  144.1302  165.0436 C.1     1  UNL1        0.1047
     23 N         138.5982  145.0418  165.5729 N.1     1  UNL1       -0.1907
     24 C         143.1807  140.2098  164.6519 C.3     1  UNL1        0.1332
     25 C         141.1214  136.8233  164.4486 C.3     1  UNL1        0.0261
     26 C         141.7845  138.1056  164.0410 C.2     1  UNL1       -0.0460
     27 C         141.7144  138.5661  162.6152 C.3     1  UNL1        0.0261
     28 C         142.5177  138.9275  165.0594 C.2     1  UNL1       -0.0102
     29 C         143.8877  142.8990  159.4499 C.3     1  UNL1        0.1600
     30 C         143.5327  141.8607  158.4273 C.ar    1  UNL1        0.0916
     31 N         142.1941  141.1856  158.4775 N.ar    1  UNL1       -0.2455
     32 C         141.8390  140.1473  157.4549 C.ar    1  UNL1        0.0986
     33 C         142.8226  139.7841  156.3820 C.ar    1  UNL1        0.0213
     34 C         144.1610  140.4591  156.3319 C.ar    1  UNL1        0.0131
     35 C         144.5162  141.4975  157.3545 C.ar    1  UNL1        0.0839
     36 C         145.8547  142.1727  157.3044 C.1     1  UNL1        0.1017
     37 N         147.1932  142.8478  157.2544 N.1     1  UNL1       -0.1908
@<TRIPOS>BOND
     1    25    26    1
     2    26    27    1
     3    26    28    2
     4    28    24    1
     5    24     1    1
     6     1     2   ar
     7     2    13    1
     8    13    14    1
     9    14    15    1
    10    15    16    1
    11    16    17    1
    12    17    18    1
    13    17    19    1
    14     2     3   ar
    15     3    22    1
    16    22    23    3
    17     3     4   ar
    18     4     5   ar
    19     5     6   ar
    20     6     7    2
    21     6     8   ar
    22     8    29    1
    23    29    30    1
    24    30    31   ar
    25    31    32   ar
    26    32    33   ar
    27    33    34   ar
    28    34    35   ar
    29    35    36    1
    30    36    37    3
    31     8     9   ar
    32     9    10    2
    33     9    11   ar
    34    11    12    1
    35     5     1   ar
    36    35    30   ar
    37    19    13    1
    38    11     4   ar
    39    18    20    1
    40    18    21    1
@<TRIPOS>MOLECULE
*****
 37 40 0 0 0
SMALL
GASTEIGER

@<TRIPOS>ATOM
      1 N         140.4332  141.8725  164.6879 N.ar    1  UNL1       -0.3063
      2 C         141.4908  142.2719  165.6737 C.ar    1  UNL1        0.1240
      3 C         142.6390  142.8605  164.9088 C.ar    1  UNL1        0.1156
      4 C         142.2910  142.8249  163.4501 C.ar    1  UNL1        0.0966
      5 C         140.9278  142.2143  163.3136 C.ar    1  UNL1        0.1349
      6 C         140.3129  142.0483  161.9556 C.ar    1  UNL1        0.2819
      7 O         138.9496  141.4377  161.8190 O.2     1  UNL1       -0.2652
      8 N         141.0613  142.4931  160.7340 N.ar    1  UNL1       -0.2417
      9 C         142.4245  143.1037  160.8705 C.ar    1  UNL1        0.3342
     10 O         143.1729  143.5484  159.6490 O.2     1  UNL1       -0.2462
     11 N         143.0394  143.2696  162.2286 N.ar    1  UNL1       -0.2770
     12 C         144.4027  143.8802  162.3651 C.3     1  UNL1        0.1351
     13 N         141.4138  142.1110  167.1631 N.pl3   1  UNL1       -0.2926
     14 C         140.4692  142.9598  167.9613 C.3     1  UNL1        0.0922
     15 C         140.3921  142.7990  169.4507 C.3     1  UNL1        0.0229
     16 C         141.2596  141.7892  170.1418 C.3     1  UNL1        0.0190
     17 C         142.2042  140.9403  169.3436 C.3     1  UNL1        0.0709
     18 N         143.0717  139.9305  170.0347 N.3     1  UNL1       -0.3208
     19 C         142.2813  141.1012  167.8542 C.3     1  UNL1        0.1075
     20 H         143.6465  139.4469  169.3446 H       1  UNL1        0.1189
     21 H         142.4840  139.2539  170.5218 H       1  UNL1        0.1189
     22 C         143.9117  143.3915  165.4989 C.1     1  UNL1        0.1047
     23 N         145.1845  143.9225  166.0890 N.1     1  UNL1       -0.1907
     24 C         139.1128  141.2420  165.0183 C.3     1  UNL1        0.1332
     25 C         138.5138  137.3867  165.7447 C.3     1  UNL1        0.0261
     26 C         138.7201  138.8557  165.9675 C.2     1  UNL1       -0.0460
     27 C         138.7402  139.4072  167.3623 C.3     1  UNL1        0.0261
     28 C         138.9065  139.7731  164.7955 C.2     1  UNL1       -0.0102
     29 C         140.4464  142.3271  159.3759 C.3     1  UNL1        0.1600
     30 C         140.4015  140.9725  158.7333 C.ar    1  UNL1        0.0916
     31 N         141.4130  139.9304  159.1089 N.ar    1  UNL1       -0.2455
     32 C         141.3682  138.5758  158.4663 C.ar    1  UNL1        0.0986
     33 C         140.3118  138.2632  157.4482 C.ar    1  UNL1        0.0213
     34 C         139.3004  139.3052  157.0727 C.ar    1  UNL1        0.0131
     35 C         139.3452  140.6599  157.7152 C.ar    1  UNL1        0.0839
     36 C         138.3337  141.7020  157.3397 C.1     1  UNL1        0.1017
     37 N         137.3224  142.7440  156.9642 N.1     1  UNL1       -0.1908
@<TRIPOS>BOND
     1    25    26    1
     2    26    27    1
     3    26    28    2
     4    28    24    1
     5    24     1    1
     6     1     2   ar
     7     2    13    1
     8    13    14    1
     9    14    15    1
    10    15    16    1
    11    16    17    1
    12    17    18    1
    13    17    19    1
    14     2     3   ar
    15     3    22    1
    16    22    23    3
    17     3     4   ar
    18     4     5   ar
    19     5     6   ar
    20     6     7    2
    21     6     8   ar
    22     8    29    1
    23    29    30    1
    24    30    31   ar
    25    31    32   ar
    26    32    33   ar
    27    33    34   ar
    28    34    35   ar
    29    35    36    1
    30    36    37    3
    31     8     9   ar
    32     9    10    2
    33     9    11   ar
    34    11    12    1
    35     5     1   ar
    36    35    30   ar
    37    19    13    1
    38    11     4   ar
    39    18    20    1
    40    18    21    1
@<TRIPOS>MOLECULE
*****
 37 40 0 0 0
SMALL
GASTEIGER

@<TRIPOS>ATOM
      1 N         141.8998  140.2836  165.4078 N.ar    1  UNL1       -0.3063
      2 C         140.8886  139.8194  166.4139 C.ar    1  UNL1        0.1240
      3 C         139.8411  139.0288  165.6875 C.ar    1  UNL1        0.1156
      4 C         140.2048  139.0044  164.2324 C.ar    1  UNL1        0.0966
      5 C         141.4771  139.7799  164.0596 C.ar    1  UNL1        0.1349
      6 C         142.0865  139.9272  162.6970 C.ar    1  UNL1        0.2819
      7 O         143.3588  140.7027  162.5241 O.2     1  UNL1       -0.2652
      8 N         141.4235  139.2990  161.5070 N.ar    1  UNL1       -0.2417
      9 C         140.1512  138.5235  161.6798 C.ar    1  UNL1        0.3342
     10 O         139.4882  137.8953  160.4899 O.2     1  UNL1       -0.2462
     11 N         139.5419  138.3762  163.0425 N.ar    1  UNL1       -0.2770
     12 C         138.2696  137.6007  163.2153 C.3     1  UNL1        0.1351
     13 N         140.9196  140.0970  167.8877 N.pl3   1  UNL1       -0.2926
     14 C         139.7532  140.7698  168.5487 C.3     1  UNL1        0.0922
     15 C         139.7841  141.0474  170.0225 C.3     1  UNL1        0.0229
     16 C         140.9813  140.6523  170.8352 C.3     1  UNL1        0.0190
     17 C         142.1477  139.9795  170.1741 C.3     1  UNL1        0.0709
     18 N         143.3449  139.5844  170.9868 N.3     1  UNL1       -0.3208
     19 C         142.1168  139.7018  168.7003 C.3     1  UNL1        0.1075
     20 H         144.0365  139.1430  170.3808 H       1  UNL1        0.1189
     21 H         143.0608  138.9273  171.7134 H       1  UNL1        0.1189
     22 C         138.6407  138.3771  166.3073 C.1     1  UNL1        0.1047
     23 N         137.4402  137.7253  166.9271 N.1     1  UNL1       -0.1907
     24 C         143.1194  141.1069  165.6989 C.3     1  UNL1        0.1332
     25 C         144.1345  144.8013  164.6639 C.3     1  UNL1        0.0261
     26 C         144.1807  143.3103  164.8224 C.2     1  UNL1       -0.0460
     27 C         145.3345  142.5321  164.2629 C.3     1  UNL1        0.0261
     28 C         143.0732  142.5978  165.5404 C.2     1  UNL1       -0.0102
     29 C         142.0329  139.4463  160.1442 C.3     1  UNL1        0.1600
     30 C         141.6104  140.5755  159.2518 C.ar    1  UNL1        0.0916
     31 N         140.7909  141.7031  159.8060 N.ar    1  UNL1       -0.2455
     32 C         140.3684  142.8323  158.9136 C.ar    1  UNL1        0.0986
     33 C         140.7653  142.8339  157.4670 C.ar    1  UNL1        0.0213
     34 C         141.5847  141.7063  156.9129 C.ar    1  UNL1        0.0131
     35 C         142.0073  140.5771  157.8053 C.ar    1  UNL1        0.0839
     36 C         142.8268  139.4495  157.2512 C.1     1  UNL1        0.1017
     37 N         143.6461  138.3219  156.6972 N.1     1  UNL1       -0.1908
@<TRIPOS>BOND
     1    25    26    1
     2    26    27    1
     3    26    28    2
     4    28    24    1
     5    24     1    1
     6     1     2   ar
     7     2    13    1
     8    13    14    1
     9    14    15    1
    10    15    16    1
    11    16    17    1
    12    17    18    1
    13    17    19    1
    14     2     3   ar
    15     3    22    1
    16    22    23    3
    17     3     4   ar
    18     4     5   ar
    19     5     6   ar
    20     6     7    2
    21     6     8   ar
    22     8    29    1
    23    29    30    1
    24    30    31   ar
    25    31    32   ar
    26    32    33   ar
    27    33    34   ar
    28    34    35   ar
    29    35    36    1
    30    36    37    3
    31     8     9   ar
    32     9    10    2
    33     9    11   ar
    34    11    12    1
    35     5     1   ar
    36    35    30   ar
    37    19    13    1
    38    11     4   ar
    39    18    20    1
    40    18    21    1
