@<TRIPOS>MOLECULE
*****
 33 36 0 0 0
SMALL
GASTEIGER

@<TRIPOS>ATOM
      1 C         141.1393  138.8060  158.6647 C.ar    1  UNL1        0.1447
      2 C         139.7241  139.1456  159.0281 C.ar    1  UNL1        0.0333
      3 C         139.2872  139.1028  160.4624 C.ar    1  UNL1       -0.0177
      4 C         137.8720  139.4423  160.8259 C.3     1  UNL1        0.0312
      5 C         140.2654  138.7204  161.5333 C.ar    1  UNL1        0.0105
      6 C         141.6806  138.3808  161.1700 C.ar    1  UNL1       -0.0177
      7 C         142.6588  137.9985  162.2409 C.3     1  UNL1        0.0312
      8 C         142.1175  138.4237  159.7356 C.ar    1  UNL1        0.0333
      9 C         139.8285  138.6776  162.9677 C.ar    1  UNL1        0.0891
     10 C         139.1195  137.5393  163.6397 C.ar    1  UNL1        0.0572
     11 S         138.8766  137.9237  165.0692 S.2     1  UNL1       -0.0508
     12 C         139.4356  139.2996  165.2806 C.ar    1  UNL1        0.1658
     13 N         140.0238  139.7655  163.9818 N.ar    1  UNL1       -0.2239
     14 N         139.4106  140.0736  166.5651 N.am    1  UNL1       -0.2606
     15 C         140.6340  140.1291  167.4313 C.2     1  UNL1        0.2511
     16 O         141.8824  139.4106  167.0127 O.2     1  UNL1       -0.2698
     17 H         138.5912  140.5452  166.8397 H       1  UNL1        0.1571
     18 C         140.6091  140.9032  168.7158 C.ar    1  UNL1        0.0591
     19 C         140.7409  140.1857  170.0265 C.ar    1  UNL1        0.0254
     20 C         140.7159  140.9597  171.3111 C.ar    1  UNL1        0.1014
     21 N         140.5591  142.4513  171.2850 N.ar    1  UNL1       -0.2165
     22 C         140.4273  143.1688  169.9744 C.ar    1  UNL1        0.2225
     23 F         140.2705  144.6604  169.9483 F       1  UNL1       -0.1832
     24 C         140.4523  142.3947  168.6898 C.ar    1  UNL1        0.0542
     25 O         141.5762  138.8489  157.2304 O.3     1  UNL1       -0.4535
     26 C         142.6220  135.0356  155.0820 C.ar    1  UNL1        0.1389
     27 C         143.7109  135.9450  155.5690 C.ar    1  UNL1        0.0400
     28 C         143.3623  137.2161  156.2852 C.ar    1  UNL1        0.0406
     29 C         141.9248  137.5778  156.5143 C.ar    1  UNL1        0.1455
     30 C         140.8358  136.6684  156.0273 C.ar    1  UNL1        0.0406
     31 C         141.1844  135.3973  155.3111 C.ar    1  UNL1        0.0400
     32 C         143.3523  132.5432  155.1486 C.3     1  UNL1        0.2525
     33 O         142.9706  133.7645  154.3659 O.3     1  UNL1       -0.4714
@<TRIPOS>BOND
     1    32    33    1
     2    33    26    1
     3    26    27   ar
     4    27    28   ar
     5    28    29   ar
     6    29    25    1
     7    25     1    1
     8     1     2   ar
     9     2     3   ar
    10     3     4    1
    11     3     5   ar
    12     5     9    1
    13     9    10   ar
    14    10    11   ar
    15    11    12   ar
    16    12    14    1
    17    14    15   am
    18    15    16    2
    19    15    18    1
    20    18    19   ar
    21    19    20   ar
    22    20    21   ar
    23    21    22   ar
    24    22    23    1
    25    22    24   ar
    26    12    13   ar
    27     5     6   ar
    28     6     7    1
    29     6     8   ar
    30    29    30   ar
    31    30    31   ar
    32    31    26   ar
    33     8     1   ar
    34    13     9   ar
    35    24    18   ar
    36    14    17    1
@<TRIPOS>MOLECULE
*****
 33 36 0 0 0
SMALL
GASTEIGER

@<TRIPOS>ATOM
      1 C         138.5839  139.3938  165.6291 C.ar    1  UNL1        0.1447
      2 C         137.9932  140.6405  165.0399 C.ar    1  UNL1        0.0333
      3 C         138.1062  140.9003  163.5669 C.ar    1  UNL1       -0.0177
      4 C         137.5155  142.1469  162.9777 C.3     1  UNL1        0.0312
      5 C         138.8099  139.9135  162.6831 C.ar    1  UNL1        0.0105
      6 C         139.4006  138.6670  163.2722 C.ar    1  UNL1       -0.0177
      7 C         140.1042  137.6802  162.3884 C.3     1  UNL1        0.0312
      8 C         139.2876  138.4071  164.7452 C.ar    1  UNL1        0.0333
      9 C         138.9229  140.1734  161.2100 C.ar    1  UNL1        0.0891
     10 C         140.0580  140.8728  160.5227 C.ar    1  UNL1        0.0572
     11 S         139.7573  140.9112  159.0536 S.2     1  UNL1       -0.0508
     12 C         138.4363  140.2355  158.8331 C.ar    1  UNL1        0.1658
     13 N         137.9207  139.7795  160.1658 N.ar    1  UNL1       -0.2239
     14 N         137.7514  140.0486  157.5118 N.am    1  UNL1       -0.2606
     15 C         137.1688  141.2305  156.7951 C.2     1  UNL1        0.2511
     16 O         137.2713  142.5994  157.3997 O.2     1  UNL1       -0.2698
     17 H         137.6841  139.1501  157.1150 H       1  UNL1        0.1571
     18 C         136.4839  141.0436  155.4738 C.ar    1  UNL1        0.0591
     19 C         137.2523  140.5157  154.2987 C.ar    1  UNL1        0.0254
     20 C         136.5672  140.3288  152.9774 C.ar    1  UNL1        0.1014
     21 N         135.1138  140.6697  152.8312 N.ar    1  UNL1       -0.2165
     22 C         134.3455  141.1976  154.0063 C.ar    1  UNL1        0.2225
     23 F         132.8920  141.5386  153.8602 F       1  UNL1       -0.1832
     24 C         135.0305  141.3845  155.3276 C.ar    1  UNL1        0.0542
     25 O         138.4709  139.1340  167.1020 O.3     1  UNL1       -0.4535
     26 C         141.2514  141.2037  169.9717 C.ar    1  UNL1        0.1389
     27 C         139.8425  140.8950  170.3834 C.ar    1  UNL1        0.0400
     28 C         138.9156  140.2051  169.4269 C.ar    1  UNL1        0.0406
     29 C         139.3977  139.8239  168.0586 C.ar    1  UNL1        0.1455
     30 C         140.8067  140.1326  167.6469 C.ar    1  UNL1        0.0406
     31 C         141.7335  140.8225  168.6034 C.ar    1  UNL1        0.0400
     32 C         143.0015  143.0591  170.4661 C.3     1  UNL1        0.2525
     33 O         142.1783  141.8936  170.9283 O.3     1  UNL1       -0.4714
@<TRIPOS>BOND
     1    32    33    1
     2    33    26    1
     3    26    27   ar
     4    27    28   ar
     5    28    29   ar
     6    29    25    1
     7    25     1    1
     8     1     2   ar
     9     2     3   ar
    10     3     4    1
    11     3     5   ar
    12     5     9    1
    13     9    10   ar
    14    10    11   ar
    15    11    12   ar
    16    12    14    1
    17    14    15   am
    18    15    16    2
    19    15    18    1
    20    18    19   ar
    21    19    20   ar
    22    20    21   ar
    23    21    22   ar
    24    22    23    1
    25    22    24   ar
    26    12    13   ar
    27     5     6   ar
    28     6     7    1
    29     6     8   ar
    30    29    30   ar
    31    30    31   ar
    32    31    26   ar
    33     8     1   ar
    34    13     9   ar
    35    24    18   ar
    36    14    17    1
@<TRIPOS>MOLECULE
*****
 33 36 0 0 0
SMALL
GASTEIGER

@<TRIPOS>ATOM
      1 C         138.6599  139.4862  165.5644 C.ar    1  UNL1        0.1447
      2 C         139.2438  138.4578  164.6416 C.ar    1  UNL1        0.0333
      3 C         139.2858  138.7133  163.1642 C.ar    1  UNL1       -0.0177
      4 C         139.8698  137.6849  162.2414 C.3     1  UNL1        0.0312
      5 C         138.7437  139.9972  162.6094 C.ar    1  UNL1        0.0105
      6 C         138.1598  141.0256  163.5321 C.ar    1  UNL1       -0.0177
      7 C         137.6177  142.3095  162.9774 C.3     1  UNL1        0.0312
      8 C         138.1178  140.7701  165.0096 C.ar    1  UNL1        0.0333
      9 C         138.7857  140.2528  161.1319 C.ar    1  UNL1        0.0891
     10 C         139.9264  140.8664  160.3754 C.ar    1  UNL1        0.0572
     11 S         139.5400  140.9324  158.9274 S.2     1  UNL1       -0.0508
     12 C         138.1606  140.3596  158.7892 C.ar    1  UNL1        0.1658
     13 N         137.6944  139.9396  160.1516 N.ar    1  UNL1       -0.2239
     14 N         137.3837  140.2296  157.5127 N.am    1  UNL1       -0.2606
     15 C         137.0012  141.4566  156.7392 C.2     1  UNL1        0.2511
     16 O         137.3956  142.8135  157.2423 O.2     1  UNL1       -0.2698
     17 H         137.1249  139.3390  157.1825 H       1  UNL1        0.1571
     18 C         136.2244  141.3266  155.4627 C.ar    1  UNL1        0.0591
     19 C         136.9406  141.0528  154.1734 C.ar    1  UNL1        0.0254
     20 C         136.1637  140.9229  152.8969 C.ar    1  UNL1        0.1014
     21 N         134.6707  141.0667  152.9095 N.ar    1  UNL1       -0.2165
     22 C         133.9545  141.3404  154.1988 C.ar    1  UNL1        0.2225
     23 F         132.4614  141.4842  154.2115 F       1  UNL1       -0.1832
     24 C         134.7314  141.4704  155.4753 C.ar    1  UNL1        0.0542
     25 O         138.6179  139.2306  167.0418 O.3     1  UNL1       -0.4535
     26 C         140.8456  141.9425  169.8585 C.ar    1  UNL1        0.1389
     27 C         139.6872  141.1309  170.3578 C.ar    1  UNL1        0.0400
     28 C         138.9446  140.2269  169.4189 C.ar    1  UNL1        0.0406
     29 C         139.3605  140.1346  167.9807 C.ar    1  UNL1        0.1455
     30 C         140.5189  140.9461  167.4814 C.ar    1  UNL1        0.0406
     31 C         141.2615  141.8501  168.4203 C.ar    1  UNL1        0.0400
     32 C         143.0451  143.1253  170.5748 C.3     1  UNL1        0.2525
     33 O         141.5882  142.8464  170.7974 O.3     1  UNL1       -0.4714
@<TRIPOS>BOND
     1    32    33    1
     2    33    26    1
     3    26    27   ar
     4    27    28   ar
     5    28    29   ar
     6    29    25    1
     7    25     1    1
     8     1     2   ar
     9     2     3   ar
    10     3     4    1
    11     3     5   ar
    12     5     9    1
    13     9    10   ar
    14    10    11   ar
    15    11    12   ar
    16    12    14    1
    17    14    15   am
    18    15    16    2
    19    15    18    1
    20    18    19   ar
    21    19    20   ar
    22    20    21   ar
    23    21    22   ar
    24    22    23    1
    25    22    24   ar
    26    12    13   ar
    27     5     6   ar
    28     6     7    1
    29     6     8   ar
    30    29    30   ar
    31    30    31   ar
    32    31    26   ar
    33     8     1   ar
    34    13     9   ar
    35    24    18   ar
    36    14    17    1
@<TRIPOS>MOLECULE
*****
 33 36 0 0 0
SMALL
GASTEIGER

@<TRIPOS>ATOM
      1 C         143.1218  138.7220  165.8124 C.ar    1  UNL1        0.1447
      2 C         141.9785  137.9770  165.1895 C.ar    1  UNL1        0.0333
      3 C         141.7800  138.0143  163.7032 C.ar    1  UNL1       -0.0177
      4 C         140.6367  137.2693  163.0802 C.3     1  UNL1        0.0312
      5 C         142.7248  138.7966  162.8397 C.ar    1  UNL1        0.0105
      6 C         143.8680  139.5415  163.4626 C.ar    1  UNL1       -0.0177
      7 C         144.8127  140.3238  162.5991 C.3     1  UNL1        0.0312
      8 C         144.0665  139.5043  164.9490 C.ar    1  UNL1        0.0333
      9 C         142.5262  138.8339  161.3533 C.ar    1  UNL1        0.0891
     10 C         141.9204  139.9626  160.5729 C.ar    1  UNL1        0.0572
     11 S         141.9184  139.5753  159.1236 S.2     1  UNL1       -0.0508
     12 C         142.5229  138.2073  159.0086 C.ar    1  UNL1        0.1658
     13 N         142.8985  137.7491  160.3866 N.ar    1  UNL1       -0.2239
     14 N         142.7176  137.4334  157.7385 N.am    1  UNL1       -0.2606
     15 C         141.5329  137.0659  156.8950 C.2     1  UNL1        0.2511
     16 O         140.1535  137.4724  157.3217 O.2     1  UNL1       -0.2698
     17 H         143.6230  137.1667  157.4585 H       1  UNL1        0.1571
     18 C         141.7276  136.2921  155.6249 C.ar    1  UNL1        0.0591
     19 C         141.2365  136.8518  154.3229 C.ar    1  UNL1        0.0254
     20 C         141.4312  136.0779  153.0527 C.ar    1  UNL1        0.1014
     21 N         142.1170  134.7442  153.0847 N.ar    1  UNL1       -0.2165
     22 C         142.6081  134.1845  154.3868 C.ar    1  UNL1        0.2225
     23 F         143.2939  132.8508  154.4188 F       1  UNL1       -0.1832
     24 C         142.4134  134.9584  155.6569 C.ar    1  UNL1        0.0542
     25 O         143.3203  138.6847  167.2987 O.3     1  UNL1       -0.4535
     26 C         141.5752  141.9283  169.8839 C.ar    1  UNL1        0.1389
     27 C         141.8294  142.1849  168.4281 C.ar    1  UNL1        0.0400
     28 C         142.4111  141.1037  167.5663 C.ar    1  UNL1        0.0406
     29 C         142.7386  139.7659  168.1605 C.ar    1  UNL1        0.1455
     30 C         142.4844  139.5093  169.6163 C.ar    1  UNL1        0.0406
     31 C         141.9028  140.5906  170.4780 C.ar    1  UNL1        0.0400
     32 C         140.4019  144.2349  170.1144 C.3     1  UNL1        0.2525
     33 O         140.9935  143.0096  170.7457 O.3     1  UNL1       -0.4714
@<TRIPOS>BOND
     1    32    33    1
     2    33    26    1
     3    26    27   ar
     4    27    28   ar
     5    28    29   ar
     6    29    25    1
     7    25     1    1
     8     1     2   ar
     9     2     3   ar
    10     3     4    1
    11     3     5   ar
    12     5     9    1
    13     9    10   ar
    14    10    11   ar
    15    11    12   ar
    16    12    14    1
    17    14    15   am
    18    15    16    2
    19    15    18    1
    20    18    19   ar
    21    19    20   ar
    22    20    21   ar
    23    21    22   ar
    24    22    23    1
    25    22    24   ar
    26    12    13   ar
    27     5     6   ar
    28     6     7    1
    29     6     8   ar
    30    29    30   ar
    31    30    31   ar
    32    31    26   ar
    33     8     1   ar
    34    13     9   ar
    35    24    18   ar
    36    14    17    1
@<TRIPOS>MOLECULE
*****
 33 36 0 0 0
SMALL
GASTEIGER

@<TRIPOS>ATOM
      1 C         135.7245  140.5762  155.0175 C.ar    1  UNL1        0.1447
      2 C         135.7125  139.4998  153.9728 C.ar    1  UNL1        0.0333
      3 C         136.9086  138.6121  153.7968 C.ar    1  UNL1       -0.0177
      4 C         136.8966  137.5357  152.7521 C.3     1  UNL1        0.0312
      5 C         138.1169  138.8006  154.6655 C.ar    1  UNL1        0.0105
      6 C         138.1290  139.8769  155.7101 C.ar    1  UNL1       -0.0177
      7 C         139.3373  140.0655  156.5788 C.3     1  UNL1        0.0312
      8 C         136.9328  140.7648  155.8862 C.ar    1  UNL1        0.0333
      9 C         139.3131  137.9128  154.4894 C.ar    1  UNL1        0.0891
     10 C         140.4766  138.1715  153.5787 C.ar    1  UNL1        0.0572
     11 S         141.4384  137.0290  153.7196 S.2     1  UNL1       -0.0508
     12 C         140.8693  136.0643  154.7174 C.ar    1  UNL1        0.1658
     13 N         139.5558  136.6105  155.1931 N.ar    1  UNL1       -0.2239
     14 N         141.5024  134.7791  155.1614 N.am    1  UNL1       -0.2606
     15 C         142.5096  134.7839  156.2730 C.2     1  UNL1        0.2511
     16 O         142.8835  136.0740  156.9405 O.2     1  UNL1       -0.2698
     17 H         141.2570  133.9323  154.7232 H       1  UNL1        0.1571
     18 C         143.1428  133.4987  156.7170 C.ar    1  UNL1        0.0591
     19 C         142.5036  132.1876  156.3670 C.ar    1  UNL1        0.0254
     20 C         143.1368  130.9023  156.8110 C.ar    1  UNL1        0.1014
     21 N         144.4092  130.9281  157.6050 N.ar    1  UNL1       -0.2165
     22 C         145.0483  132.2392  157.9550 C.ar    1  UNL1        0.2225
     23 F         146.3207  132.2651  158.7491 F       1  UNL1       -0.1832
     24 C         144.4151  133.5245  157.5110 C.ar    1  UNL1        0.0542
     25 O         134.5284  141.4640  155.1935 O.3     1  UNL1       -0.4535
     26 C         130.7323  139.8029  156.9488 C.ar    1  UNL1        0.1389
     27 C         130.6693  140.9002  155.9281 C.ar    1  UNL1        0.0400
     28 C         131.9346  141.4539  155.3430 C.ar    1  UNL1        0.0406
     29 C         133.2630  140.9103  155.7786 C.ar    1  UNL1        0.1455
     30 C         133.3261  139.8130  156.7993 C.ar    1  UNL1        0.0406
     31 C         132.0607  139.2593  157.3844 C.ar    1  UNL1        0.0400
     32 C         129.5228  138.3815  158.7561 C.3     1  UNL1        0.2525
     33 O         129.4670  139.2492  157.5339 O.3     1  UNL1       -0.4714
@<TRIPOS>BOND
     1    32    33    1
     2    33    26    1
     3    26    27   ar
     4    27    28   ar
     5    28    29   ar
     6    29    25    1
     7    25     1    1
     8     1     2   ar
     9     2     3   ar
    10     3     4    1
    11     3     5   ar
    12     5     9    1
    13     9    10   ar
    14    10    11   ar
    15    11    12   ar
    16    12    14    1
    17    14    15   am
    18    15    16    2
    19    15    18    1
    20    18    19   ar
    21    19    20   ar
    22    20    21   ar
    23    21    22   ar
    24    22    23    1
    25    22    24   ar
    26    12    13   ar
    27     5     6   ar
    28     6     7    1
    29     6     8   ar
    30    29    30   ar
    31    30    31   ar
    32    31    26   ar
    33     8     1   ar
    34    13     9   ar
    35    24    18   ar
    36    14    17    1
@<TRIPOS>MOLECULE
*****
 33 36 0 0 0
SMALL
GASTEIGER

@<TRIPOS>ATOM
      1 C         140.9065  139.0464  158.5403 C.ar    1  UNL1        0.1447
      2 C         139.5289  139.4596  158.9665 C.ar    1  UNL1        0.0333
      3 C         139.1341  139.3761  160.4111 C.ar    1  UNL1       -0.0177
      4 C         137.7564  139.7892  160.8372 C.3     1  UNL1        0.0312
      5 C         140.1168  138.8794  161.4297 C.ar    1  UNL1        0.0105
      6 C         141.4944  138.4663  161.0037 C.ar    1  UNL1       -0.0177
      7 C         142.4771  137.9697  162.0223 C.3     1  UNL1        0.0312
      8 C         141.8893  138.5498  159.5589 C.ar    1  UNL1        0.0333
      9 C         139.7219  138.7959  162.8745 C.ar    1  UNL1        0.0891
     10 C         139.0775  137.6194  163.5456 C.ar    1  UNL1        0.0572
     11 S         138.8594  137.9705  164.9876 S.2     1  UNL1       -0.0508
     12 C         139.3691  139.3641  165.2075 C.ar    1  UNL1        0.1658
     13 N         139.9021  139.8742  163.9015 N.ar    1  UNL1       -0.2239
     14 N         139.3492  140.1156  166.5054 N.am    1  UNL1       -0.2606
     15 C         140.5748  140.1530  167.3694 C.2     1  UNL1        0.2511
     16 O         141.8204  139.4389  166.9353 O.2     1  UNL1       -0.2698
     17 H         138.5316  140.5843  166.7903 H       1  UNL1        0.1571
     18 C         140.5549  140.9045  168.6673 C.ar    1  UNL1        0.0591
     19 C         140.6568  140.1610  169.9661 C.ar    1  UNL1        0.0254
     20 C         140.6369  140.9126  171.2641 C.ar    1  UNL1        0.1014
     21 N         140.5151  142.4076  171.2634 N.ar    1  UNL1       -0.2165
     22 C         140.4133  143.1511  169.9646 C.ar    1  UNL1        0.2225
     23 F         140.2915  144.6462  169.9638 F       1  UNL1       -0.1832
     24 C         140.4332  142.3996  168.6666 C.ar    1  UNL1        0.0542
     25 O         141.3014  139.1300  157.0957 O.3     1  UNL1       -0.4535
     26 C         145.3522  140.7264  155.9589 C.ar    1  UNL1        0.1389
     27 C         144.4228  141.5615  156.7889 C.ar    1  UNL1        0.0400
     28 C         143.0726  141.0293  157.1679 C.ar    1  UNL1        0.0406
     29 C         142.6516  139.6621  156.7167 C.ar    1  UNL1        0.1455
     30 C         143.5810  138.8271  155.8867 C.ar    1  UNL1        0.0406
     31 C         144.9312  139.3593  155.5077 C.ar    1  UNL1        0.0400
     32 C         147.3128  142.3822  156.3641 C.3     1  UNL1        0.2525
     33 O         146.7024  141.2586  155.5799 O.3     1  UNL1       -0.4714
@<TRIPOS>BOND
     1    32    33    1
     2    33    26    1
     3    26    27   ar
     4    27    28   ar
     5    28    29   ar
     6    29    25    1
     7    25     1    1
     8     1     2   ar
     9     2     3   ar
    10     3     4    1
    11     3     5   ar
    12     5     9    1
    13     9    10   ar
    14    10    11   ar
    15    11    12   ar
    16    12    14    1
    17    14    15   am
    18    15    16    2
    19    15    18    1
    20    18    19   ar
    21    19    20   ar
    22    20    21   ar
    23    21    22   ar
    24    22    23    1
    25    22    24   ar
    26    12    13   ar
    27     5     6   ar
    28     6     7    1
    29     6     8   ar
    30    29    30   ar
    31    30    31   ar
    32    31    26   ar
    33     8     1   ar
    34    13     9   ar
    35    24    18   ar
    36    14    17    1
@<TRIPOS>MOLECULE
*****
 33 36 0 0 0
SMALL
GASTEIGER

@<TRIPOS>ATOM
      1 C         135.8566  140.4248  155.1066 C.ar    1  UNL1        0.1447
      2 C         136.9898  140.8617  155.9871 C.ar    1  UNL1        0.0333
      3 C         138.2826  140.1012  155.9784 C.ar    1  UNL1       -0.0177
      4 C         139.4157  140.5380  156.8589 C.3     1  UNL1        0.0312
      5 C         138.4424  138.9037  155.0892 C.ar    1  UNL1        0.0105
      6 C         137.3094  138.4668  154.2087 C.ar    1  UNL1       -0.0177
      7 C         137.4692  137.2694  153.3195 C.3     1  UNL1        0.0312
      8 C         136.0164  139.2274  154.2174 C.ar    1  UNL1        0.0333
      9 C         139.7353  138.1432  155.0805 C.ar    1  UNL1        0.0891
     10 C         140.8703  138.3448  154.1207 C.ar    1  UNL1        0.0572
     11 S         141.9567  137.3737  154.4771 S.2     1  UNL1       -0.0508
     12 C         141.4931  136.5721  155.6572 C.ar    1  UNL1        0.1658
     13 N         140.1202  137.0477  156.0301 N.ar    1  UNL1       -0.2239
     14 N         142.2665  135.4858  156.3438 N.am    1  UNL1       -0.2606
     15 C         142.2392  134.0877  155.8010 C.2     1  UNL1        0.2511
     16 O         141.4384  133.7760  154.5716 O.2     1  UNL1       -0.2698
     17 H         142.7921  135.6903  157.1507 H       1  UNL1        0.1571
     18 C         143.0127  133.0013  156.4876 C.ar    1  UNL1        0.0591
     19 C         142.5334  131.5816  156.4195 C.ar    1  UNL1        0.0254
     20 C         143.3069  130.4951  157.1062 C.ar    1  UNL1        0.1014
     21 N         144.5596  130.8284  157.8608 N.ar    1  UNL1       -0.2165
     22 C         145.0389  132.2482  157.9289 C.ar    1  UNL1        0.2225
     23 F         146.2917  132.5815  158.6835 F       1  UNL1       -0.1832
     24 C         144.2654  133.3346  157.2422 C.ar    1  UNL1        0.0542
     25 O         134.5638  141.1853  155.1153 O.3     1  UNL1       -0.4535
     26 C         131.0035  139.5455  157.3255 C.ar    1  UNL1        0.1389
     27 C         132.3738  139.0018  157.6024 C.ar    1  UNL1        0.0400
     28 C         133.5605  139.5484  156.8656 C.ar    1  UNL1        0.0406
     29 C         133.3770  140.6387  155.8520 C.ar    1  UNL1        0.1455
     30 C         132.0068  141.1824  155.5751 C.ar    1  UNL1        0.0406
     31 C         130.8200  140.6359  156.3119 C.ar    1  UNL1        0.0400
     32 C         129.2608  137.6547  157.6965 C.3     1  UNL1        0.2525
     33 O         129.8167  138.9989  158.0623 O.3     1  UNL1       -0.4714
@<TRIPOS>BOND
     1    32    33    1
     2    33    26    1
     3    26    27   ar
     4    27    28   ar
     5    28    29   ar
     6    29    25    1
     7    25     1    1
     8     1     2   ar
     9     2     3   ar
    10     3     4    1
    11     3     5   ar
    12     5     9    1
    13     9    10   ar
    14    10    11   ar
    15    11    12   ar
    16    12    14    1
    17    14    15   am
    18    15    16    2
    19    15    18    1
    20    18    19   ar
    21    19    20   ar
    22    20    21   ar
    23    21    22   ar
    24    22    23    1
    25    22    24   ar
    26    12    13   ar
    27     5     6   ar
    28     6     7    1
    29     6     8   ar
    30    29    30   ar
    31    30    31   ar
    32    31    26   ar
    33     8     1   ar
    34    13     9   ar
    35    24    18   ar
    36    14    17    1
@<TRIPOS>MOLECULE
*****
 33 36 0 0 0
SMALL
GASTEIGER

@<TRIPOS>ATOM
      1 C         141.2785  138.3526  158.4965 C.ar    1  UNL1        0.1447
      2 C         142.3438  138.1265  159.5280 C.ar    1  UNL1        0.0333
      3 C         142.0100  138.2320  160.9865 C.ar    1  UNL1       -0.0177
      4 C         143.0754  138.0059  162.0181 C.3     1  UNL1        0.0312
      5 C         140.6109  138.5637  161.4136 C.ar    1  UNL1        0.0105
      6 C         139.5456  138.7898  160.3822 C.ar    1  UNL1       -0.0177
      7 C         138.1464  139.1215  160.8093 C.3     1  UNL1        0.0312
      8 C         139.8793  138.6843  158.9236 C.ar    1  UNL1        0.0333
      9 C         140.2771  138.6693  162.8723 C.ar    1  UNL1        0.0891
     10 C         139.5724  137.6300  163.6928 C.ar    1  UNL1        0.0572
     11 S         139.4492  138.1510  165.0941 S.2     1  UNL1       -0.0508
     12 C         140.0778  139.5122  165.1395 C.ar    1  UNL1        0.1658
     13 N         140.5895  139.8325  163.7663 N.ar    1  UNL1       -0.2239
     14 N         140.1773  140.3976  166.3461 N.am    1  UNL1       -0.2606
     15 C         141.4801  140.5234  167.0788 C.2     1  UNL1        0.2511
     16 O         142.6835  139.7637  166.6048 O.2     1  UNL1       -0.2698
     17 H         139.3874  140.8963  166.6572 H       1  UNL1        0.1571
     18 C         141.5796  141.4089  168.2854 C.ar    1  UNL1        0.0591
     19 C         142.9226  141.8702  168.7685 C.ar    1  UNL1        0.0254
     20 C         143.0221  142.7556  169.9752 C.ar    1  UNL1        0.1014
     21 N         141.7785  143.1798  170.6988 N.ar    1  UNL1       -0.2165
     22 C         140.4355  142.7185  170.2157 C.ar    1  UNL1        0.2225
     23 F         139.1918  143.1426  170.9393 F       1  UNL1       -0.1832
     24 C         140.3360  141.8330  169.0090 C.ar    1  UNL1        0.0542
     25 O         141.6123  138.2470  157.0379 O.3     1  UNL1       -0.4535
     26 C         142.7119  134.2602  155.2642 C.ar    1  UNL1        0.1389
     27 C         141.3381  134.8230  155.0503 C.ar    1  UNL1        0.0400
     28 C         140.9715  136.1519  155.6415 C.ar    1  UNL1        0.0406
     29 C         141.9788  136.9181  156.4467 C.ar    1  UNL1        0.1455
     30 C         143.3526  136.3553  156.6606 C.ar    1  UNL1        0.0406
     31 C         143.7192  135.0264  156.0693 C.ar    1  UNL1        0.0400
     32 C         142.2999  132.3864  153.5123 C.3     1  UNL1        0.2525
     33 O         143.0784  132.9313  154.6729 O.3     1  UNL1       -0.4714
@<TRIPOS>BOND
     1    32    33    1
     2    33    26    1
     3    26    27   ar
     4    27    28   ar
     5    28    29   ar
     6    29    25    1
     7    25     1    1
     8     1     2   ar
     9     2     3   ar
    10     3     4    1
    11     3     5   ar
    12     5     9    1
    13     9    10   ar
    14    10    11   ar
    15    11    12   ar
    16    12    14    1
    17    14    15   am
    18    15    16    2
    19    15    18    1
    20    18    19   ar
    21    19    20   ar
    22    20    21   ar
    23    21    22   ar
    24    22    23    1
    25    22    24   ar
    26    12    13   ar
    27     5     6   ar
    28     6     7    1
    29     6     8   ar
    30    29    30   ar
    31    30    31   ar
    32    31    26   ar
    33     8     1   ar
    34    13     9   ar
    35    24    18   ar
    36    14    17    1
@<TRIPOS>MOLECULE
*****
 33 36 0 0 0
SMALL
GASTEIGER

@<TRIPOS>ATOM
      1 C         143.2181  139.1197  165.1910 C.ar    1  UNL1        0.1447
      2 C         144.0193  140.2796  164.6783 C.ar    1  UNL1        0.0333
      3 C         144.0280  140.5954  163.2120 C.ar    1  UNL1       -0.0177
      4 C         144.8293  141.7553  162.6993 C.3     1  UNL1        0.0312
      5 C         143.2355  139.7515  162.2583 C.ar    1  UNL1        0.0105
      6 C         142.4342  138.5916  162.7709 C.ar    1  UNL1       -0.0177
      7 C         141.6417  137.7477  161.8171 C.3     1  UNL1        0.0312
      8 C         142.4255  138.2757  164.2372 C.ar    1  UNL1        0.0333
      9 C         143.2442  140.0674  160.7919 C.ar    1  UNL1        0.0891
     10 C         142.0945  140.6193  160.0021 C.ar    1  UNL1        0.0572
     11 S         142.5439  140.7799  158.5800 S.2     1  UNL1       -0.0508
     12 C         143.9712  140.3271  158.4909 C.ar    1  UNL1        0.1658
     13 N         144.4039  139.8868  159.8579 N.ar    1  UNL1       -0.2239
     14 N         144.8171  140.3166  157.2523 N.am    1  UNL1       -0.2606
     15 C         145.6268  141.5252  156.8866 C.2     1  UNL1        0.2511
     16 O         145.5904  142.7444  157.7597 O.2     1  UNL1       -0.2698
     17 H         144.8409  139.5164  156.6794 H       1  UNL1        0.1571
     18 C         146.4727  141.5147  155.6481 C.ar    1  UNL1        0.0591
     19 C         145.8686  141.1284  154.3305 C.ar    1  UNL1        0.0254
     20 C         146.7146  141.1178  153.0919 C.ar    1  UNL1        0.1014
     21 N         148.1646  141.4936  153.1708 N.ar    1  UNL1       -0.2165
     22 C         148.7687  141.8799  154.4883 C.ar    1  UNL1        0.2225
     23 F         150.2188  142.2556  154.5672 F       1  UNL1       -0.1832
     24 C         147.9227  141.8904  155.7269 C.ar    1  UNL1        0.0542
     25 O         143.2094  138.8038  166.6573 O.3     1  UNL1       -0.4535
     26 C         140.3101  140.8934  169.3919 C.ar    1  UNL1        0.1389
     27 C         141.6817  140.5375  169.8838 C.ar    1  UNL1        0.0400
     28 C         142.6481  139.8410  168.9723 C.ar    1  UNL1        0.0406
     29 C         142.2429  139.5003  167.5688 C.ar    1  UNL1        0.1455
     30 C         140.8713  139.8562  167.0769 C.ar    1  UNL1        0.0406
     31 C         139.9049  140.5527  167.9885 C.ar    1  UNL1        0.0400
     32 C         139.6889  142.9316  170.8784 C.3     1  UNL1        0.2525
     33 O         139.3437  141.5899  170.3034 O.3     1  UNL1       -0.4714
@<TRIPOS>BOND
     1    32    33    1
     2    33    26    1
     3    26    27   ar
     4    27    28   ar
     5    28    29   ar
     6    29    25    1
     7    25     1    1
     8     1     2   ar
     9     2     3   ar
    10     3     4    1
    11     3     5   ar
    12     5     9    1
    13     9    10   ar
    14    10    11   ar
    15    11    12   ar
    16    12    14    1
    17    14    15   am
    18    15    16    2
    19    15    18    1
    20    18    19   ar
    21    19    20   ar
    22    20    21   ar
    23    21    22   ar
    24    22    23    1
    25    22    24   ar
    26    12    13   ar
    27     5     6   ar
    28     6     7    1
    29     6     8   ar
    30    29    30   ar
    31    30    31   ar
    32    31    26   ar
    33     8     1   ar
    34    13     9   ar
    35    24    18   ar
    36    14    17    1
