@<TRIPOS>MOLECULE
*****
 33 36 0 0 0
SMALL
GASTEIGER

@<TRIPOS>ATOM
      1 N         138.3631  138.8933  167.5007 N.pl3   1  UNL1       -0.3414
      2 C         138.9736  138.7904  166.1345 C.ar    1  UNL1        0.1433
      3 N         138.3207  137.9429  165.0831 N.ar    1  UNL1       -0.2265
      4 C         138.9312  137.8400  163.7168 C.ar    1  UNL1        0.1193
      5 C         140.1947  138.5846  163.4019 C.ar    1  UNL1        0.1005
      6 N         140.8476  139.4321  164.4533 N.ar    1  UNL1       -0.2409
      7 C         140.2371  139.5350  165.8196 C.ar    1  UNL1        0.1138
      8 H         137.5338  138.4046  167.7074 H       1  UNL1        0.1438
      9 H         138.7917  139.4495  168.1908 H       1  UNL1        0.1438
     10 C         140.8052  138.4817  162.0357 C.ar    1  UNL1        0.0192
     11 C         140.0448  138.9643  160.8361 C.ar    1  UNL1        0.0017
     12 C         140.6553  138.8614  159.4699 C.ar    1  UNL1        0.0046
     13 C         142.0262  138.2760  159.3031 C.ar    1  UNL1        0.0536
     14 C         142.7866  137.7934  160.5027 C.ar    1  UNL1        0.0046
     15 C         142.1761  137.8963  161.8689 C.ar    1  UNL1        0.0017
     16 C         142.6368  138.1731  157.9369 C.2     1  UNL1        0.2492
     17 O         142.4114  136.9453  157.1052 O.2     1  UNL1       -0.2699
     18 N         143.4727  139.2980  157.4023 N.am    1  UNL1       -0.2709
     19 C         143.6981  140.5259  158.2340 C.3     1  UNL1        0.1258
     20 C         144.5340  141.6508  157.6994 C.3     1  UNL1        0.1637
     21 O         145.1445  141.5479  156.3331 O.3     1  UNL1       -0.3501
     22 C         144.9191  140.3201  155.5014 C.3     1  UNL1        0.1637
     23 C         144.0832  139.1951  156.0360 C.3     1  UNL1        0.1258
     24 C         140.8901  140.3825  166.8709 C.ar    1  UNL1        0.0395
     25 C         140.3791  141.7664  167.1428 C.ar    1  UNL1        0.0046
     26 C         141.0321  142.6139  168.1941 C.ar    1  UNL1        0.0232
     27 C         142.1960  142.0776  168.9737 C.ar    1  UNL1        0.1526
     28 N         142.7070  140.6937  168.7019 N.ar    1  UNL1       -0.2398
     29 C         142.0540  139.8462  167.6505 C.ar    1  UNL1        0.1003
     30 C         142.8490  142.9251  170.0250 C.3     1  UNL1        0.4348
     31 F         143.5019  143.7726  171.0763 F       1  UNL1       -0.1644
     32 F         141.6149  143.7738  170.1072 F       1  UNL1       -0.1644
     33 F         144.0830  142.0764  169.9427 F       1  UNL1       -0.1644
@<TRIPOS>BOND
     1     1     2    1
     2     2     3   ar
     3     3     4   ar
     4     4     5   ar
     5     5    10    1
     6    10    11   ar
     7    11    12   ar
     8    12    13   ar
     9    13    16    1
    10    16    17    2
    11    16    18   am
    12    18    19    1
    13    19    20    1
    14    20    21    1
    15    21    22    1
    16    22    23    1
    17    13    14   ar
    18    14    15   ar
    19     5     6   ar
    20     6     7   ar
    21     7    24    1
    22    24    25   ar
    23    25    26   ar
    24    26    27   ar
    25    27    30    1
    26    30    31    1
    27    30    32    1
    28    30    33    1
    29    27    28   ar
    30    28    29   ar
    31     7     2   ar
    32    29    24   ar
    33    15    10   ar
    34    23    18    1
    35     1     8    1
    36     1     9    1
@<TRIPOS>MOLECULE
*****
 33 36 0 0 0
SMALL
GASTEIGER

@<TRIPOS>ATOM
      1 N         143.3599  138.7921  155.5391 N.pl3   1  UNL1       -0.3414
      2 C         143.3351  138.7822  157.0388 C.ar    1  UNL1        0.1433
      3 N         143.7450  140.0055  157.8038 N.ar    1  UNL1       -0.2265
      4 C         143.7202  139.9956  159.3036 C.ar    1  UNL1        0.1193
      5 C         143.2856  138.7622  160.0383 C.ar    1  UNL1        0.1005
      6 N         142.8757  137.5389  159.2733 N.ar    1  UNL1       -0.2409
      7 C         142.9004  137.5488  157.7736 C.ar    1  UNL1        0.1138
      8 H         143.6452  139.6016  155.0568 H       1  UNL1        0.1438
      9 H         143.0909  137.9892  155.0369 H       1  UNL1        0.1438
     10 C         143.2608  138.7523  161.5381 C.ar    1  UNL1        0.0192
     11 C         142.2283  137.9434  162.2658 C.ar    1  UNL1        0.0017
     12 C         142.2035  137.9334  163.7655 C.ar    1  UNL1        0.0046
     13 C         143.2112  138.7323  164.5376 C.ar    1  UNL1        0.0536
     14 C         144.2437  139.5412  163.8099 C.ar    1  UNL1        0.0046
     15 C         144.2685  139.5512  162.3102 C.ar    1  UNL1        0.0017
     16 C         143.1865  138.7223  166.0374 C.2     1  UNL1        0.2492
     17 O         144.1240  137.8314  166.7971 O.2     1  UNL1       -0.2699
     18 N         142.2241  139.6033  166.7775 N.am    1  UNL1       -0.2709
     19 C         141.2865  140.4944  166.0178 C.3     1  UNL1        0.1258
     20 C         140.3242  141.3753  166.7579 C.3     1  UNL1        0.1637
     21 O         140.2994  141.3654  168.2576 O.3     1  UNL1       -0.3501
     22 C         141.2370  140.4744  169.0173 C.3     1  UNL1        0.1637
     23 C         142.1994  139.5933  168.2772 C.3     1  UNL1        0.1258
     24 C         142.4905  136.3254  157.0085 C.ar    1  UNL1        0.0395
     25 C         143.2506  135.0437  157.1804 C.ar    1  UNL1        0.0046
     26 C         142.8407  133.8203  156.4155 C.ar    1  UNL1        0.0232
     27 C         141.6707  133.8785  155.4785 C.ar    1  UNL1        0.1526
     28 N         140.9106  135.1602  155.3066 N.ar    1  UNL1       -0.2398
     29 C         141.3205  136.3836  156.0717 C.ar    1  UNL1        0.1003
     30 C         141.2608  132.6551  154.7136 C.3     1  UNL1        0.4348
     31 F         140.8509  131.4317  153.9486 F       1  UNL1       -0.1644
     32 F         140.8486  133.5165  153.5569 F       1  UNL1       -0.1644
     33 F         141.6731  131.7937  155.8703 F       1  UNL1       -0.1644
@<TRIPOS>BOND
     1     1     2    1
     2     2     3   ar
     3     3     4   ar
     4     4     5   ar
     5     5    10    1
     6    10    11   ar
     7    11    12   ar
     8    12    13   ar
     9    13    16    1
    10    16    17    2
    11    16    18   am
    12    18    19    1
    13    19    20    1
    14    20    21    1
    15    21    22    1
    16    22    23    1
    17    13    14   ar
    18    14    15   ar
    19     5     6   ar
    20     6     7   ar
    21     7    24    1
    22    24    25   ar
    23    25    26   ar
    24    26    27   ar
    25    27    30    1
    26    30    31    1
    27    30    32    1
    28    30    33    1
    29    27    28   ar
    30    28    29   ar
    31     7     2   ar
    32    29    24   ar
    33    15    10   ar
    34    23    18    1
    35     1     8    1
    36     1     9    1
@<TRIPOS>MOLECULE
*****
 33 36 0 0 0
SMALL
GASTEIGER

@<TRIPOS>ATOM
      1 N         138.4908  138.8025  167.1942 N.pl3   1  UNL1       -0.3414
      2 C         139.1260  138.7968  165.8353 C.ar    1  UNL1        0.1433
      3 N         138.5262  137.9785  164.7305 N.ar    1  UNL1       -0.2265
      4 C         139.1614  137.9728  163.3716 C.ar    1  UNL1        0.1193
      5 C         140.3964  138.7853  163.1176 C.ar    1  UNL1        0.1005
      6 N         140.9962  139.6035  164.2224 N.ar    1  UNL1       -0.2409
      7 C         140.3610  139.6093  165.5813 C.ar    1  UNL1        0.1138
      8 H         137.6802  138.2692  167.3609 H       1  UNL1        0.1438
      9 H         138.8844  139.3396  167.9193 H       1  UNL1        0.1438
     10 C         141.0316  138.7795  161.7588 C.ar    1  UNL1        0.0192
     11 C         140.5398  139.7180  160.6970 C.ar    1  UNL1        0.0017
     12 C         141.1751  139.7122  159.3381 C.ar    1  UNL1        0.0046
     13 C         142.3021  138.7681  159.0411 C.ar    1  UNL1        0.0536
     14 C         142.7939  137.8296  160.1028 C.ar    1  UNL1        0.0046
     15 C         142.1587  137.8354  161.4617 C.ar    1  UNL1        0.0017
     16 C         142.9373  138.7623  157.6822 C.2     1  UNL1        0.2492
     17 O         144.2319  139.4855  157.4564 O.2     1  UNL1       -0.2699
     18 N         142.2779  138.0334  156.5492 N.am    1  UNL1       -0.2709
     19 C         140.9833  137.3102  156.7749 C.3     1  UNL1        0.1258
     20 C         140.3239  136.5813  155.6418 C.3     1  UNL1        0.1637
     21 O         140.9591  136.5755  154.2830 O.3     1  UNL1       -0.3501
     22 C         142.2537  137.2987  154.0572 C.3     1  UNL1        0.1637
     23 C         142.9131  138.0277  155.1903 C.3     1  UNL1        0.1258
     24 C         140.9608  140.4276  166.6861 C.ar    1  UNL1        0.0395
     25 C         140.3966  141.7793  167.0095 C.ar    1  UNL1        0.0046
     26 C         140.9964  142.5976  168.1143 C.ar    1  UNL1        0.0232
     27 C         142.1604  142.0642  168.8958 C.ar    1  UNL1        0.1526
     28 N         142.7246  140.7125  168.5724 N.ar    1  UNL1       -0.2398
     29 C         142.1248  139.8942  167.4675 C.ar    1  UNL1        0.1003
     30 C         142.7602  142.8825  170.0006 C.3     1  UNL1        0.4348
     31 F         143.3600  143.7008  171.1054 F       1  UNL1       -0.1644
     32 F         143.9579  141.9797  170.0190 F       1  UNL1       -0.1644
     33 F         141.5625  143.7853  169.9821 F       1  UNL1       -0.1644
@<TRIPOS>BOND
     1     1     2    1
     2     2     3   ar
     3     3     4   ar
     4     4     5   ar
     5     5    10    1
     6    10    11   ar
     7    11    12   ar
     8    12    13   ar
     9    13    16    1
    10    16    17    2
    11    16    18   am
    12    18    19    1
    13    19    20    1
    14    20    21    1
    15    21    22    1
    16    22    23    1
    17    13    14   ar
    18    14    15   ar
    19     5     6   ar
    20     6     7   ar
    21     7    24    1
    22    24    25   ar
    23    25    26   ar
    24    26    27   ar
    25    27    30    1
    26    30    31    1
    27    30    32    1
    28    30    33    1
    29    27    28   ar
    30    28    29   ar
    31     7     2   ar
    32    29    24   ar
    33    15    10   ar
    34    23    18    1
    35     1     8    1
    36     1     9    1
@<TRIPOS>MOLECULE
*****
 33 36 0 0 0
SMALL
GASTEIGER

@<TRIPOS>ATOM
      1 N         143.8761  137.1778  154.7055 N.pl3   1  UNL1       -0.3414
      2 C         143.5418  137.6567  156.0872 C.ar    1  UNL1        0.1433
      3 N         143.7874  139.0873  156.4650 N.ar    1  UNL1       -0.2265
      4 C         143.4530  139.5662  157.8467 C.ar    1  UNL1        0.1193
      5 C         142.8731  138.6143  158.8505 C.ar    1  UNL1        0.1005
      6 N         142.6276  137.1837  158.4726 N.ar    1  UNL1       -0.2409
      7 C         142.9619  136.7048  157.0910 C.ar    1  UNL1        0.1138
      8 H         144.2567  137.8026  154.0467 H       1  UNL1        0.1438
      9 H         143.7149  136.2388  154.4575 H       1  UNL1        0.1438
     10 C         142.5388  139.0932  160.2321 C.ar    1  UNL1        0.0192
     11 C         141.4011  138.4715  160.9865 C.ar    1  UNL1        0.0017
     12 C         141.0668  138.9503  162.3682 C.ar    1  UNL1        0.0046
     13 C         141.8702  140.0508  162.9954 C.ar    1  UNL1        0.0536
     14 C         143.0079  140.6725  162.2410 C.ar    1  UNL1        0.0046
     15 C         143.3422  140.1937  160.8594 C.ar    1  UNL1        0.0017
     16 C         141.5358  140.5297  164.3771 C.2     1  UNL1        0.2492
     17 O         140.5816  141.6717  164.5646 O.2     1  UNL1       -0.2699
     18 N         142.1557  139.8665  165.5711 N.am    1  UNL1       -0.2709
     19 C         143.1100  138.7244  165.3836 C.3     1  UNL1        0.1258
     20 C         143.7299  138.0612  166.5777 C.3     1  UNL1        0.1637
     21 O         143.3956  138.5401  167.9593 O.3     1  UNL1       -0.3501
     22 C         142.4414  139.6821  168.1469 C.3     1  UNL1        0.1637
     23 C         141.8214  140.3453  166.9528 C.3     1  UNL1        0.1258
     24 C         142.7163  135.2741  156.7132 C.ar    1  UNL1        0.0395
     25 C         141.6960  134.9395  155.6657 C.ar    1  UNL1        0.0046
     26 C         141.4504  133.5089  155.2878 C.ar    1  UNL1        0.0232
     27 C         142.2250  132.4126  155.9575 C.ar    1  UNL1        0.1526
     28 N         143.2452  132.7472  157.0050 N.ar    1  UNL1       -0.2398
     29 C         143.4908  134.1779  157.3828 C.ar    1  UNL1        0.1003
     30 C         141.9794  130.9820  155.5797 C.3     1  UNL1        0.4348
     31 F         141.7337  129.5513  155.2018 F       1  UNL1       -0.1644
     32 F         142.9418  130.5366  156.6404 F       1  UNL1       -0.1644
     33 F         141.0169  131.4274  154.5189 F       1  UNL1       -0.1644
@<TRIPOS>BOND
     1     1     2    1
     2     2     3   ar
     3     3     4   ar
     4     4     5   ar
     5     5    10    1
     6    10    11   ar
     7    11    12   ar
     8    12    13   ar
     9    13    16    1
    10    16    17    2
    11    16    18   am
    12    18    19    1
    13    19    20    1
    14    20    21    1
    15    21    22    1
    16    22    23    1
    17    13    14   ar
    18    14    15   ar
    19     5     6   ar
    20     6     7   ar
    21     7    24    1
    22    24    25   ar
    23    25    26   ar
    24    26    27   ar
    25    27    30    1
    26    30    31    1
    27    30    32    1
    28    30    33    1
    29    27    28   ar
    30    28    29   ar
    31     7     2   ar
    32    29    24   ar
    33    15    10   ar
    34    23    18    1
    35     1     8    1
    36     1     9    1
@<TRIPOS>MOLECULE
*****
 33 36 0 0 0
SMALL
GASTEIGER

@<TRIPOS>ATOM
      1 N         141.0995  136.6895  164.5414 N.pl3   1  UNL1       -0.3414
      2 C         141.1311  137.8659  163.6113 C.ar    1  UNL1        0.1433
      3 N         141.2586  137.6496  162.1325 N.ar    1  UNL1       -0.2265
      4 C         141.2903  138.8260  161.2025 C.ar    1  UNL1        0.1193
      5 C         141.1944  140.2187  161.7512 C.ar    1  UNL1        0.1005
      6 N         141.0670  140.4350  163.2300 N.ar    1  UNL1       -0.2409
      7 C         141.0353  139.2586  164.1601 C.ar    1  UNL1        0.1138
      8 H         141.1624  135.7754  164.1813 H       1  UNL1        0.1438
      9 H         141.0158  136.8314  165.5120 H       1  UNL1        0.1438
     10 C         141.2261  141.3951  160.8211 C.ar    1  UNL1        0.0192
     11 C         140.3396  142.5777  161.0771 C.ar    1  UNL1        0.0017
     12 C         140.3712  143.7541  160.1470 C.ar    1  UNL1        0.0046
     13 C         141.2894  143.7479  158.9609 C.ar    1  UNL1        0.0536
     14 C         142.1759  142.5654  158.7049 C.ar    1  UNL1        0.0046
     15 C         142.1442  141.3890  159.6350 C.ar    1  UNL1        0.0017
     16 C         141.3210  144.9244  158.0309 C.2     1  UNL1        0.2492
     17 O         142.3772  145.9776  158.1894 O.2     1  UNL1       -0.2699
     18 N         140.2965  145.0476  156.9423 N.am    1  UNL1       -0.2709
     19 C         139.2402  143.9943  156.7837 C.3     1  UNL1        0.1258
     20 C         138.2157  144.1176  155.6951 C.3     1  UNL1        0.1637
     21 O         138.2473  145.2940  154.7651 O.3     1  UNL1       -0.3501
     22 C         139.3035  146.3472  154.9236 C.3     1  UNL1        0.1637
     23 C         140.3281  146.2240  156.0122 C.3     1  UNL1        0.1258
     24 C         140.9078  139.4749  165.6390 C.ar    1  UNL1        0.0395
     25 C         139.5542  139.6745  166.2538 C.ar    1  UNL1        0.0046
     26 C         139.4267  139.8909  167.7326 C.ar    1  UNL1        0.0232
     27 C         140.6528  139.9076  168.5966 C.ar    1  UNL1        0.1526
     28 N         142.0064  139.7080  167.9818 N.ar    1  UNL1       -0.2398
     29 C         142.1338  139.4916  166.5029 C.ar    1  UNL1        0.1003
     30 C         140.5252  140.1240  170.0754 C.3     1  UNL1        0.4348
     31 F         140.3977  140.3403  171.5542 F       1  UNL1       -0.1644
     32 F         141.5913  139.0969  170.3176 F       1  UNL1       -0.1644
     33 F         139.4592  141.1510  169.8332 F       1  UNL1       -0.1644
@<TRIPOS>BOND
     1     1     2    1
     2     2     3   ar
     3     3     4   ar
     4     4     5   ar
     5     5    10    1
     6    10    11   ar
     7    11    12   ar
     8    12    13   ar
     9    13    16    1
    10    16    17    2
    11    16    18   am
    12    18    19    1
    13    19    20    1
    14    20    21    1
    15    21    22    1
    16    22    23    1
    17    13    14   ar
    18    14    15   ar
    19     5     6   ar
    20     6     7   ar
    21     7    24    1
    22    24    25   ar
    23    25    26   ar
    24    26    27   ar
    25    27    30    1
    26    30    31    1
    27    30    32    1
    28    30    33    1
    29    27    28   ar
    30    28    29   ar
    31     7     2   ar
    32    29    24   ar
    33    15    10   ar
    34    23    18    1
    35     1     8    1
    36     1     9    1
@<TRIPOS>MOLECULE
*****
 33 36 0 0 0
SMALL
GASTEIGER

@<TRIPOS>ATOM
      1 N         144.0280  144.6158  164.1581 N.pl3   1  UNL1       -0.3414
      2 C         143.5170  143.6511  163.1294 C.ar    1  UNL1        0.1433
      3 N         144.0629  143.6851  161.7327 N.ar    1  UNL1       -0.2265
      4 C         143.5518  142.7204  160.7041 C.ar    1  UNL1        0.1193
      5 C         142.4949  141.7217  161.0721 C.ar    1  UNL1        0.1005
      6 N         141.9490  141.6878  162.4688 N.ar    1  UNL1       -0.2409
      7 C         142.4600  142.6525  163.4974 C.ar    1  UNL1        0.1138
      8 H         144.7218  145.2713  163.9166 H       1  UNL1        0.1438
      9 H         143.6697  144.5935  165.0748 H       1  UNL1        0.1438
     10 C         141.9838  140.7570  160.0434 C.ar    1  UNL1        0.0192
     11 C         141.9379  141.1562  158.5982 C.ar    1  UNL1        0.0017
     12 C         141.4268  140.1915  157.5695 C.ar    1  UNL1        0.0046
     13 C         140.9617  138.8277  157.9860 C.ar    1  UNL1        0.0536
     14 C         141.0077  138.4285  159.4311 C.ar    1  UNL1        0.0046
     15 C         141.5187  139.3932  160.4598 C.ar    1  UNL1        0.0017
     16 C         140.4507  137.8630  156.9573 C.2     1  UNL1        0.2492
     17 O         139.0187  137.9265  156.5155 O.2     1  UNL1       -0.2699
     18 N         141.3716  136.8347  156.3704 N.am    1  UNL1       -0.2709
     19 C         142.8038  136.7711  156.8122 C.3     1  UNL1        0.1258
     20 C         143.7247  135.7429  156.2253 C.3     1  UNL1        0.1637
     21 O         143.2137  134.7782  155.1966 O.3     1  UNL1       -0.3501
     22 C         141.7816  134.8418  154.7548 C.3     1  UNL1        0.1637
     23 C         140.8606  135.8700  155.3417 C.3     1  UNL1        0.1258
     24 C         141.9141  142.6184  164.8942 C.ar    1  UNL1        0.0395
     25 C         142.6983  141.9597  165.9901 C.ar    1  UNL1        0.0046
     26 C         142.1524  141.9257  167.3868 C.ar    1  UNL1        0.0232
     27 C         140.8222  142.5504  167.6876 C.ar    1  UNL1        0.1526
     28 N         140.0380  143.2091  166.5917 N.ar    1  UNL1       -0.2398
     29 C         140.5840  143.2432  165.1950 C.ar    1  UNL1        0.1003
     30 C         140.2764  142.5164  169.0843 C.3     1  UNL1        0.4348
     31 F         139.7305  142.4823  170.4810 F       1  UNL1       -0.1644
     32 F         140.4148  144.0072  169.1748 F       1  UNL1       -0.1644
     33 F         140.1379  141.0255  168.9939 F       1  UNL1       -0.1644
@<TRIPOS>BOND
     1     1     2    1
     2     2     3   ar
     3     3     4   ar
     4     4     5   ar
     5     5    10    1
     6    10    11   ar
     7    11    12   ar
     8    12    13   ar
     9    13    16    1
    10    16    17    2
    11    16    18   am
    12    18    19    1
    13    19    20    1
    14    20    21    1
    15    21    22    1
    16    22    23    1
    17    13    14   ar
    18    14    15   ar
    19     5     6   ar
    20     6     7   ar
    21     7    24    1
    22    24    25   ar
    23    25    26   ar
    24    26    27   ar
    25    27    30    1
    26    30    31    1
    27    30    32    1
    28    30    33    1
    29    27    28   ar
    30    28    29   ar
    31     7     2   ar
    32    29    24   ar
    33    15    10   ar
    34    23    18    1
    35     1     8    1
    36     1     9    1
@<TRIPOS>MOLECULE
*****
 33 36 0 0 0
SMALL
GASTEIGER

@<TRIPOS>ATOM
      1 N         143.7484  136.8725  154.6344 N.pl3   1  UNL1       -0.3414
      2 C         143.4687  137.3569  156.0262 C.ar    1  UNL1        0.1433
      3 N         143.6675  138.8030  156.3712 N.ar    1  UNL1       -0.2265
      4 C         143.3877  139.2874  157.7630 C.ar    1  UNL1        0.1193
      5 C         142.9092  138.3256  158.8098 C.ar    1  UNL1        0.1005
      6 N         142.7104  136.8794  158.4648 N.ar    1  UNL1       -0.2409
      7 C         142.9901  136.3951  157.0730 C.ar    1  UNL1        0.1138
      8 H         144.0625  137.5038  153.9473 H       1  UNL1        0.1438
      9 H         143.6179  135.9233  154.4080 H       1  UNL1        0.1438
     10 C         142.6294  138.8099  160.2017 C.ar    1  UNL1        0.0192
     11 C         141.7856  140.0315  160.4153 C.ar    1  UNL1        0.0017
     12 C         141.5059  140.5158  161.8071 C.ar    1  UNL1        0.0046
     13 C         142.0700  139.7786  162.9853 C.ar    1  UNL1        0.0536
     14 C         142.9138  138.5570  162.7717 C.ar    1  UNL1        0.0046
     15 C         143.1935  138.0727  161.3799 C.ar    1  UNL1        0.0017
     16 C         141.7902  140.2629  164.3771 C.2     1  UNL1        0.2492
     17 O         142.6774  141.2974  165.0037 O.2     1  UNL1       -0.2699
     18 N         140.6233  139.7128  165.1423 N.am    1  UNL1       -0.2709
     19 C         139.7360  138.6783  164.5157 C.3     1  UNL1        0.1258
     20 C         138.5690  138.1282  165.2808 C.3     1  UNL1        0.1637
     21 O         138.2893  138.6126  166.6727 O.3     1  UNL1       -0.3501
     22 C         139.1765  139.6470  167.2993 C.3     1  UNL1        0.1637
     23 C         140.3435  140.1972  166.5341 C.3     1  UNL1        0.1258
     24 C         142.7913  134.9488  156.7281 C.ar    1  UNL1        0.0395
     25 C         141.7298  134.5512  155.7457 C.ar    1  UNL1        0.0046
     26 C         141.5310  133.1050  155.4007 C.ar    1  UNL1        0.0232
     27 C         142.3937  132.0564  156.0381 C.ar    1  UNL1        0.1526
     28 N         143.4552  132.4540  157.0205 N.ar    1  UNL1       -0.2398
     29 C         143.6540  133.9003  157.3655 C.ar    1  UNL1        0.1003
     30 C         142.1948  130.6103  155.6931 C.3     1  UNL1        0.4348
     31 F         141.9960  129.1641  155.3481 F       1  UNL1       -0.1644
     32 F         140.9427  130.9608  154.9453 F       1  UNL1       -0.1644
     33 F         143.4469  130.2597  156.4409 F       1  UNL1       -0.1644
@<TRIPOS>BOND
     1     1     2    1
     2     2     3   ar
     3     3     4   ar
     4     4     5   ar
     5     5    10    1
     6    10    11   ar
     7    11    12   ar
     8    12    13   ar
     9    13    16    1
    10    16    17    2
    11    16    18   am
    12    18    19    1
    13    19    20    1
    14    20    21    1
    15    21    22    1
    16    22    23    1
    17    13    14   ar
    18    14    15   ar
    19     5     6   ar
    20     6     7   ar
    21     7    24    1
    22    24    25   ar
    23    25    26   ar
    24    26    27   ar
    25    27    30    1
    26    30    31    1
    27    30    32    1
    28    30    33    1
    29    27    28   ar
    30    28    29   ar
    31     7     2   ar
    32    29    24   ar
    33    15    10   ar
    34    23    18    1
    35     1     8    1
    36     1     9    1
@<TRIPOS>MOLECULE
*****
 33 36 0 0 0
SMALL
GASTEIGER

@<TRIPOS>ATOM
      1 N         144.4975  136.7161  154.9838 N.pl3   1  UNL1       -0.3414
      2 C         143.7249  137.3041  156.1272 C.ar    1  UNL1        0.1433
      3 N         143.8554  138.7634  156.4489 N.ar    1  UNL1       -0.2265
      4 C         143.0828  139.3514  157.5923 C.ar    1  UNL1        0.1193
      5 C         142.1797  138.4801  158.4140 C.ar    1  UNL1        0.1005
      6 N         142.0492  137.0209  158.0924 N.ar    1  UNL1       -0.2409
      7 C         142.8218  136.4329  156.9489 C.ar    1  UNL1        0.1138
      8 H         145.0903  137.2880  154.4445 H       1  UNL1        0.1438
      9 H         144.4118  135.7584  154.7727 H       1  UNL1        0.1438
     10 C         141.4071  139.0681  159.5574 C.ar    1  UNL1        0.0192
     11 C         142.0747  139.2790  160.8840 C.ar    1  UNL1        0.0017
     12 C         141.3021  139.8669  162.0274 C.ar    1  UNL1        0.0046
     13 C         139.8620  140.2441  161.8443 C.ar    1  UNL1        0.0536
     14 C         139.1944  140.0332  160.5177 C.ar    1  UNL1        0.0046
     15 C         139.9670  139.4452  159.3743 C.ar    1  UNL1        0.0017
     16 C         139.0894  140.8321  162.9877 C.2     1  UNL1        0.2492
     17 O         138.2466  139.9469  163.8573 O.2     1  UNL1       -0.2699
     18 N         139.1595  142.3052  163.2614 N.am    1  UNL1       -0.2709
     19 C         140.0022  143.1904  162.3917 C.3     1  UNL1        0.1258
     20 C         140.0724  144.6635  162.6655 C.3     1  UNL1        0.1637
     21 O         139.2998  145.2515  163.8089 O.3     1  UNL1       -0.3501
     22 C         138.4571  144.3663  164.6785 C.3     1  UNL1        0.1637
     23 C         138.3869  142.8932  164.4048 C.3     1  UNL1        0.1258
     24 C         142.6913  134.9736  156.6273 C.ar    1  UNL1        0.0395
     25 C         141.7412  134.5235  155.5573 C.ar    1  UNL1        0.0046
     26 C         141.6106  133.0642  155.2357 C.ar    1  UNL1        0.0232
     27 C         142.4301  132.0550  155.9839 C.ar    1  UNL1        0.1526
     28 N         143.3802  132.5051  157.0539 N.ar    1  UNL1       -0.2398
     29 C         143.5108  133.9644  157.3755 C.ar    1  UNL1        0.1003
     30 C         142.2995  130.5957  155.6622 C.3     1  UNL1        0.4348
     31 F         142.1690  129.1365  155.3406 F       1  UNL1       -0.1644
     32 F         140.8694  130.8114  155.2645 F       1  UNL1       -0.1644
     33 F         143.7297  130.3801  156.0600 F       1  UNL1       -0.1644
@<TRIPOS>BOND
     1     1     2    1
     2     2     3   ar
     3     3     4   ar
     4     4     5   ar
     5     5    10    1
     6    10    11   ar
     7    11    12   ar
     8    12    13   ar
     9    13    16    1
    10    16    17    2
    11    16    18   am
    12    18    19    1
    13    19    20    1
    14    20    21    1
    15    21    22    1
    16    22    23    1
    17    13    14   ar
    18    14    15   ar
    19     5     6   ar
    20     6     7   ar
    21     7    24    1
    22    24    25   ar
    23    25    26   ar
    24    26    27   ar
    25    27    30    1
    26    30    31    1
    27    30    32    1
    28    30    33    1
    29    27    28   ar
    30    28    29   ar
    31     7     2   ar
    32    29    24   ar
    33    15    10   ar
    34    23    18    1
    35     1     8    1
    36     1     9    1
@<TRIPOS>MOLECULE
*****
 33 36 0 0 0
SMALL
GASTEIGER

@<TRIPOS>ATOM
      1 N         138.8440  139.5113  157.8278 N.pl3   1  UNL1       -0.3414
      2 C         138.9056  139.5718  159.3253 C.ar    1  UNL1        0.1433
      3 N         137.6642  139.3471  160.1368 N.ar    1  UNL1       -0.2265
      4 C         137.7258  139.4076  161.6343 C.ar    1  UNL1        0.1193
      5 C         139.0288  139.6930  162.3204 C.ar    1  UNL1        0.1005
      6 N         140.2702  139.9177  161.5089 N.ar    1  UNL1       -0.2409
      7 C         140.2086  139.8572  160.0114 C.ar    1  UNL1        0.1138
      8 H         137.9887  139.3240  157.3775 H       1  UNL1        0.1438
      9 H         139.6587  139.6588  157.2953 H       1  UNL1        0.1438
     10 C         139.0904  139.7535  163.8179 C.ar    1  UNL1        0.0192
     11 C         138.7982  138.5273  164.6307 C.ar    1  UNL1        0.0017
     12 C         138.8598  138.5878  166.1282 C.ar    1  UNL1        0.0046
     13 C         139.2137  139.8747  166.8129 C.ar    1  UNL1        0.0536
     14 C         139.5059  141.1009  166.0000 C.ar    1  UNL1        0.0046
     15 C         139.4443  141.0404  164.5025 C.ar    1  UNL1        0.0017
     16 C         139.2753  139.9352  168.3104 C.2     1  UNL1        0.2492
     17 O         138.1269  139.4252  169.1295 O.2     1  UNL1       -0.2699
     18 N         140.4853  140.5058  168.9888 N.am    1  UNL1       -0.2709
     19 C         141.6338  141.0159  168.1696 C.3     1  UNL1        0.1258
     20 C         142.8438  141.5865  168.8480 C.3     1  UNL1        0.1637
     21 O         142.9054  141.6470  170.3455 O.3     1  UNL1       -0.3501
     22 C         141.7570  141.1370  171.1647 C.3     1  UNL1        0.1637
     23 C         140.5469  140.5664  170.4863 C.3     1  UNL1        0.1258
     24 C         141.4500  140.0819  159.2000 C.ar    1  UNL1        0.0395
     25 C         141.6789  141.4044  158.5301 C.ar    1  UNL1        0.0046
     26 C         142.9203  141.6292  157.7187 C.ar    1  UNL1        0.0232
     27 C         143.9329  140.5315  157.5772 C.ar    1  UNL1        0.1526
     28 N         143.7040  139.2091  158.2471 N.ar    1  UNL1       -0.2398
     29 C         142.4625  138.9843  159.0585 C.ar    1  UNL1        0.1003
     30 C         145.1742  140.7563  156.7658 C.3     1  UNL1        0.4348
     31 F         146.4156  140.9811  155.9544 F       1  UNL1       -0.1644
     32 F         145.5679  141.8792  157.6792 F       1  UNL1       -0.1644
     33 F         144.7806  139.6335  155.8525 F       1  UNL1       -0.1644
@<TRIPOS>BOND
     1     1     2    1
     2     2     3   ar
     3     3     4   ar
     4     4     5   ar
     5     5    10    1
     6    10    11   ar
     7    11    12   ar
     8    12    13   ar
     9    13    16    1
    10    16    17    2
    11    16    18   am
    12    18    19    1
    13    19    20    1
    14    20    21    1
    15    21    22    1
    16    22    23    1
    17    13    14   ar
    18    14    15   ar
    19     5     6   ar
    20     6     7   ar
    21     7    24    1
    22    24    25   ar
    23    25    26   ar
    24    26    27   ar
    25    27    30    1
    26    30    31    1
    27    30    32    1
    28    30    33    1
    29    27    28   ar
    30    28    29   ar
    31     7     2   ar
    32    29    24   ar
    33    15    10   ar
    34    23    18    1
    35     1     8    1
    36     1     9    1
