@<TRIPOS>MOLECULE
*****
 35 39 0 0 0
SMALL
GASTEIGER

@<TRIPOS>ATOM
      1 C         140.3652  140.7189  169.2020 C.3     1  UNL1        0.2054
      2 O         140.8276  141.6868  168.1536 O.3     1  UNL1       -0.4754
      3 C         143.9135  140.4255  165.1309 C.ar    1  UNL1        0.0146
      4 C         143.4471  141.8504  165.1768 C.ar    1  UNL1        0.0016
      5 C         142.4185  142.2708  166.1843 C.ar    1  UNL1        0.0367
      6 C         141.8563  141.2663  167.1460 C.ar    1  UNL1        0.1408
      7 C         142.3226  139.8414  167.1002 C.ar    1  UNL1        0.0662
      8 C         143.3512  139.4210  166.0926 C.ar    1  UNL1        0.1396
      9 F         143.8176  137.9960  166.0468 F       1  UNL1       -0.2044
     10 C         144.9421  140.0050  164.1234 C.3     1  UNL1        0.1138
     11 O         145.5675  141.7287  162.2829 O.2     1  UNL1       -0.2745
     12 C         144.8434  140.4850  162.7057 C.2     1  UNL1        0.2301
     13 N         144.0206  139.7213  161.7108 N.am    1  UNL1       -0.2793
     14 C         143.9219  140.2013  160.2932 C.3     1  UNL1        0.0934
     15 C         143.0991  139.4376  159.2983 C.3     1  UNL1        0.0216
     16 C         142.3750  138.1938  159.7212 C.3     1  UNL1        0.0035
     17 C         142.4737  137.7138  161.1388 C.3     1  UNL1        0.0216
     18 C         143.2965  138.4775  162.1337 C.3     1  UNL1        0.0934
     19 C         139.1199  139.9122  168.9811 C.3     1  UNL1        0.0473
     20 C         138.7025  139.5434  167.5884 C.3     1  UNL1        0.0037
     21 C         137.9638  138.6342  166.6515 C.3     1  UNL1        0.0001
     22 C         138.7182  139.8136  166.1130 C.3     1  UNL1        0.0002
     23 C         139.1628  140.6505  164.9503 C.3     1  UNL1        0.0034
     24 C         138.6050  142.0302  164.7626 C.3     1  UNL1        0.0216
     25 C         139.0496  142.8672  163.5999 C.3     1  UNL1        0.0936
     26 N         140.0520  142.3244  162.6250 N.pl3   1  UNL1       -0.2782
     27 C         140.6098  140.9448  162.8127 C.3     1  UNL1        0.0936
     28 C         140.1652  140.1078  163.9754 C.3     1  UNL1        0.0216
     29 C         140.4966  143.1614  161.4623 C.ar    1  UNL1        0.2202
     30 N         141.2495  142.5307  160.3286 N.ar    1  UNL1       -0.2112
     31 C         141.6941  143.3676  159.1659 C.ar    1  UNL1        0.1147
     32 C         141.3858  144.8353  159.1369 C.ar    1  UNL1        0.0960
     33 CL        141.8304  145.6722  157.9742 Cl      1  UNL1       -0.0790
     34 C         140.6329  145.4660  160.2706 C.ar    1  UNL1        0.1147
     35 N         140.1883  144.6290  161.4332 N.ar    1  UNL1       -0.2112
@<TRIPOS>BOND
     1    11    12    2
     2    12    10    1
     3    10     3    1
     4     3     4   ar
     5     4     5   ar
     6     5     6   ar
     7     6     2    1
     8     2     1    1
     9     1    19    1
    10    20    19    1
    11    20    21    1
    12    21    22    1
    13    22    23    1
    14    23    24    1
    15    24    25    1
    16    25    26    1
    17    26    29    1
    18    29    30   ar
    19    30    31   ar
    20    31    32   ar
    21    32    33    1
    22    32    34   ar
    23    34    35   ar
    24    26    27    1
    25    27    28    1
    26     6     7   ar
    27     7     8   ar
    28     8     9    1
    29    12    13   am
    30    13    14    1
    31    14    15    1
    32    15    16    1
    33    16    17    1
    34    17    18    1
    35     8     3   ar
    36    18    13    1
    37    22    20    1
    38    28    23    1
    39    35    29   ar
@<TRIPOS>MOLECULE
*****
 35 39 0 0 0
SMALL
GASTEIGER

@<TRIPOS>ATOM
      1 C         140.2232  141.0371  168.7314 C.3     1  UNL1        0.2054
      2 O         141.6941  140.7440  168.7558 O.3     1  UNL1       -0.4754
      3 C         143.9317  140.1367  164.8991 C.ar    1  UNL1        0.0146
      4 C         143.4570  138.9509  165.6855 C.ar    1  UNL1        0.0016
      5 C         142.7112  139.1533  166.9710 C.ar    1  UNL1        0.0367
      6 C         142.4400  140.5416  167.4702 C.ar    1  UNL1        0.1408
      7 C         142.9146  141.7274  166.6838 C.ar    1  UNL1        0.0662
      8 C         143.6605  141.5250  165.3982 C.ar    1  UNL1        0.1396
      9 F         144.1351  142.7109  164.6117 F       1  UNL1       -0.2044
     10 C         144.6775  139.9343  163.6134 C.3     1  UNL1        0.1138
     11 O         143.5307  138.0507  162.2399 O.2     1  UNL1       -0.2745
     12 C         143.9449  139.4851  162.3840 C.2     1  UNL1        0.2301
     13 N         143.6266  140.4704  161.2987 N.am    1  UNL1       -0.2793
     14 C         142.8940  140.0212  160.0693 C.3     1  UNL1        0.0934
     15 C         142.5756  141.0065  158.9840 C.3     1  UNL1        0.0216
     16 C         142.9899  142.4409  159.1281 C.3     1  UNL1        0.0035
     17 C         143.7225  142.8901  160.3575 C.3     1  UNL1        0.0216
     18 C         144.0408  141.9049  161.4428 C.3     1  UNL1        0.0934
     19 C         139.2372  139.9156  168.5889 C.3     1  UNL1        0.0473
     20 C         138.7755  139.4916  167.2262 C.3     1  UNL1        0.0037
     21 C         138.0847  138.4983  166.3395 C.3     1  UNL1        0.0001
     22 C         138.6663  139.7503  165.7528 C.3     1  UNL1        0.0002
     23 C         138.9392  140.6225  164.5633 C.3     1  UNL1        0.0034
     24 C         137.8156  141.3683  163.9067 C.3     1  UNL1        0.0216
     25 C         138.0884  142.2405  162.7172 C.3     1  UNL1        0.0936
     26 N         139.4848  142.3669  162.1844 N.pl3   1  UNL1       -0.2782
     27 C         140.6084  141.6211  162.8410 C.3     1  UNL1        0.0936
     28 C         140.3356  140.7489  164.0305 C.3     1  UNL1        0.0216
     29 C         139.7576  143.2391  160.9949 C.ar    1  UNL1        0.2202
     30 N         140.5015  144.5303  161.1665 N.ar    1  UNL1       -0.2112
     31 C         140.7743  145.4025  159.9771 C.ar    1  UNL1        0.1147
     32 C         140.3032  144.9835  158.6160 C.ar    1  UNL1        0.0960
     33 CL        140.5761  145.8557  157.4265 Cl      1  UNL1       -0.0790
     34 C         139.5594  143.6924  158.4444 C.ar    1  UNL1        0.1147
     35 N         139.2866  142.8201  159.6339 N.ar    1  UNL1       -0.2112
@<TRIPOS>BOND
     1    11    12    2
     2    12    10    1
     3    10     3    1
     4     3     4   ar
     5     4     5   ar
     6     5     6   ar
     7     6     2    1
     8     2     1    1
     9     1    19    1
    10    20    19    1
    11    20    21    1
    12    21    22    1
    13    22    23    1
    14    23    24    1
    15    24    25    1
    16    25    26    1
    17    26    29    1
    18    29    30   ar
    19    30    31   ar
    20    31    32   ar
    21    32    33    1
    22    32    34   ar
    23    34    35   ar
    24    26    27    1
    25    27    28    1
    26     6     7   ar
    27     7     8   ar
    28     8     9    1
    29    12    13   am
    30    13    14    1
    31    14    15    1
    32    15    16    1
    33    16    17    1
    34    17    18    1
    35     8     3   ar
    36    18    13    1
    37    22    20    1
    38    28    23    1
    39    35    29   ar
@<TRIPOS>MOLECULE
*****
 35 39 0 0 0
SMALL
GASTEIGER

@<TRIPOS>ATOM
      1 C         139.6362  140.3446  168.0282 C.3     1  UNL1        0.2054
      2 O         138.7568  139.2476  167.5054 O.3     1  UNL1       -0.4754
      3 C         138.5643  138.4321  163.0842 C.ar    1  UNL1        0.0146
      4 C         139.1574  137.4117  164.0099 C.ar    1  UNL1        0.0016
      5 C         139.2216  137.6836  165.4836 C.ar    1  UNL1        0.0367
      6 C         138.6926  138.9758  166.0316 C.ar    1  UNL1        0.1408
      7 C         138.0995  139.9962  165.1059 C.ar    1  UNL1        0.0662
      8 C         138.0353  139.7243  163.6322 C.ar    1  UNL1        0.1396
      9 F         137.4422  140.7447  162.7064 F       1  UNL1       -0.2044
     10 C         138.5001  138.1603  161.6103 C.3     1  UNL1        0.1138
     11 O         138.7207  139.8235  159.6266 O.2     1  UNL1       -0.2745
     12 C         139.3577  138.9475  160.6644 C.2     1  UNL1        0.2301
     13 N         140.8523  138.8589  160.7563 N.am    1  UNL1       -0.2793
     14 C         141.7098  139.6462  159.8104 C.3     1  UNL1        0.0934
     15 C         143.2044  139.5575  159.9023 C.3     1  UNL1        0.0216
     16 C         143.8413  138.6816  160.9401 C.3     1  UNL1        0.0035
     17 C         142.9838  137.8943  161.8860 C.3     1  UNL1        0.0216
     18 C         141.4893  137.9830  161.7941 C.3     1  UNL1        0.0934
     19 C         141.1108  140.1155  168.1804 C.3     1  UNL1        0.0473
     20 C         141.9404  139.7501  166.9854 C.3     1  UNL1        0.0037
     21 C         142.9328  138.8421  166.3215 C.3     1  UNL1        0.0001
     22 C         142.3849  140.0249  165.5794 C.3     1  UNL1        0.0002
     23 C         142.3251  140.8666  164.3392 C.3     1  UNL1        0.0034
     24 C         140.9999  141.1901  163.7155 C.3     1  UNL1        0.0216
     25 C         140.9402  142.0318  162.4753 C.3     1  UNL1        0.0936
     26 N         142.2057  142.5498  161.8588 N.pl3   1  UNL1       -0.2782
     27 C         143.5309  142.2263  162.4825 C.3     1  UNL1        0.0936
     28 C         143.5906  141.3846  163.7227 C.3     1  UNL1        0.0216
     29 C         142.1459  143.3915  160.6186 C.ar    1  UNL1        0.2202
     30 N         143.0126  143.0551  159.4415 N.ar    1  UNL1       -0.2112
     31 C         142.9528  143.8967  158.2013 C.ar    1  UNL1        0.1147
     32 C         142.0265  145.0747  158.1382 C.ar    1  UNL1        0.0960
     33 CL        141.9668  145.9164  156.8980 Cl      1  UNL1       -0.0790
     34 C         141.1599  145.4111  159.3154 C.ar    1  UNL1        0.1147
     35 N         141.2196  144.5695  160.5556 N.ar    1  UNL1       -0.2112
@<TRIPOS>BOND
     1    11    12    2
     2    12    10    1
     3    10     3    1
     4     3     4   ar
     5     4     5   ar
     6     5     6   ar
     7     6     2    1
     8     2     1    1
     9     1    19    1
    10    20    19    1
    11    20    21    1
    12    21    22    1
    13    22    23    1
    14    23    24    1
    15    24    25    1
    16    25    26    1
    17    26    29    1
    18    29    30   ar
    19    30    31   ar
    20    31    32   ar
    21    32    33    1
    22    32    34   ar
    23    34    35   ar
    24    26    27    1
    25    27    28    1
    26     6     7   ar
    27     7     8   ar
    28     8     9    1
    29    12    13   am
    30    13    14    1
    31    14    15    1
    32    15    16    1
    33    16    17    1
    34    17    18    1
    35     8     3   ar
    36    18    13    1
    37    22    20    1
    38    28    23    1
    39    35    29   ar
@<TRIPOS>MOLECULE
*****
 35 39 0 0 0
SMALL
GASTEIGER

@<TRIPOS>ATOM
      1 C         138.9095  139.5386  167.8193 C.3     1  UNL1        0.2054
      2 O         139.9126  140.6479  167.7053 O.3     1  UNL1       -0.4754
      3 C         143.5643  140.1236  165.1284 C.ar    1  UNL1        0.0146
      4 C         142.5927  141.2284  164.8364 C.ar    1  UNL1        0.0016
      5 C         141.3755  141.4032  165.6954 C.ar    1  UNL1        0.0367
      6 C         141.1299  140.4731  166.8463 C.ar    1  UNL1        0.1408
      7 C         142.1015  139.3683  167.1383 C.ar    1  UNL1        0.0662
      8 C         143.3187  139.1935  166.2793 C.ar    1  UNL1        0.1396
      9 F         144.2903  138.0886  166.5713 F       1  UNL1       -0.2044
     10 C         144.7815  139.9488  164.2694 C.3     1  UNL1        0.1138
     11 O         145.5716  141.5873  162.4144 O.2     1  UNL1       -0.2745
     12 C         144.7608  140.3988  162.8387 C.2     1  UNL1        0.2301
     13 N         143.9292  139.6602  161.8321 N.am    1  UNL1       -0.2793
     14 C         143.9085  140.1102  160.4014 C.3     1  UNL1        0.0934
     15 C         143.0769  139.3716  159.3949 C.3     1  UNL1        0.0216
     16 C         142.2661  138.1831  159.8192 C.3     1  UNL1        0.0035
     17 C         142.2869  137.7331  161.2499 C.3     1  UNL1        0.0216
     18 C         143.1184  138.4716  162.2564 C.3     1  UNL1        0.0934
     19 C         138.1368  139.0990  166.6110 C.3     1  UNL1        0.0473
     20 C         138.8625  138.5918  165.4003 C.3     1  UNL1        0.0037
     21 C         139.8341  137.6362  164.7737 C.3     1  UNL1        0.0001
     22 C         139.1478  138.6689  163.9297 C.3     1  UNL1        0.0002
     23 C         138.9163  139.3097  162.5934 C.3     1  UNL1        0.0034
     24 C         137.7029  138.9490  161.7887 C.3     1  UNL1        0.0216
     25 C         137.4714  139.5897  160.4524 C.3     1  UNL1        0.0936
     26 N         138.4532  140.5913  159.9207 N.pl3   1  UNL1       -0.2782
     27 C         139.6666  140.9521  160.7253 C.3     1  UNL1        0.0936
     28 C         139.8982  140.3113  162.0617 C.3     1  UNL1        0.0216
     29 C         138.2217  141.2321  158.5844 C.ar    1  UNL1        0.2202
     30 N         137.4061  140.5234  157.5440 N.ar    1  UNL1       -0.2112
     31 C         137.1746  141.1642  156.2077 C.ar    1  UNL1        0.1147
     32 C         137.7587  142.5137  155.9117 C.ar    1  UNL1        0.0960
     33 CL        137.5272  143.1545  154.5754 Cl      1  UNL1       -0.0790
     34 C         138.5743  143.2224  156.9521 C.ar    1  UNL1        0.1147
     35 N         138.8058  142.5816  158.2884 N.ar    1  UNL1       -0.2112
@<TRIPOS>BOND
     1    11    12    2
     2    12    10    1
     3    10     3    1
     4     3     4   ar
     5     4     5   ar
     6     5     6   ar
     7     6     2    1
     8     2     1    1
     9     1    19    1
    10    20    19    1
    11    20    21    1
    12    21    22    1
    13    22    23    1
    14    23    24    1
    15    24    25    1
    16    25    26    1
    17    26    29    1
    18    29    30   ar
    19    30    31   ar
    20    31    32   ar
    21    32    33    1
    22    32    34   ar
    23    34    35   ar
    24    26    27    1
    25    27    28    1
    26     6     7   ar
    27     7     8   ar
    28     8     9    1
    29    12    13   am
    30    13    14    1
    31    14    15    1
    32    15    16    1
    33    16    17    1
    34    17    18    1
    35     8     3   ar
    36    18    13    1
    37    22    20    1
    38    28    23    1
    39    35    29   ar
@<TRIPOS>MOLECULE
*****
 35 39 0 0 0
SMALL
GASTEIGER

@<TRIPOS>ATOM
      1 C         142.5261  139.9405  170.1360 C.3     1  UNL1        0.2054
      2 O         142.4877  139.1016  168.8931 O.3     1  UNL1       -0.4754
      3 C         143.6362  140.8973  164.9300 C.ar    1  UNL1        0.0146
      4 C         143.4806  139.4114  165.0632 C.ar    1  UNL1        0.0016
      5 C         143.0978  138.8128  166.3842 C.ar    1  UNL1        0.0367
      6 C         142.8706  139.7002  167.5721 C.ar    1  UNL1        0.1408
      7 C         143.0261  141.1861  167.4389 C.ar    1  UNL1        0.0662
      8 C         143.4090  141.7847  166.1178 C.ar    1  UNL1        0.1396
      9 F         143.5646  143.2707  165.9846 F       1  UNL1       -0.2044
     10 C         144.0191  141.4959  163.6090 C.3     1  UNL1        0.1138
     11 O         142.0290  143.1239  163.2356 O.2     1  UNL1       -0.2745
     12 C         142.9636  142.0734  162.7131 C.2     1  UNL1        0.2301
     13 N         142.8427  141.6003  161.2948 N.am    1  UNL1       -0.2793
     14 C         141.7873  142.1778  160.3990 C.3     1  UNL1        0.0934
     15 C         141.6664  141.7047  158.9807 C.3     1  UNL1        0.0216
     16 C         142.6010  140.6542  158.4582 C.3     1  UNL1        0.0035
     17 C         143.6565  140.0768  159.3540 C.3     1  UNL1        0.0216
     18 C         143.7773  140.5498  160.7723 C.3     1  UNL1        0.0934
     19 C         141.2529  140.4844  170.7133 C.3     1  UNL1        0.0473
     20 C         139.9588  140.3061  169.9761 C.3     1  UNL1        0.0037
     21 C         138.4631  140.1930  169.9860 C.3     1  UNL1        0.0001
     22 C         139.2130  140.1103  168.6895 C.3     1  UNL1        0.0002
     23 C         139.2153  139.9496  167.1982 C.3     1  UNL1        0.0034
     24 C         138.6423  138.7106  166.5765 C.3     1  UNL1        0.0216
     25 C         138.6446  138.5498  165.0851 C.3     1  UNL1        0.0936
     26 N         139.2200  139.6280  164.2155 N.pl3   1  UNL1       -0.2782
     27 C         139.7931  140.8670  164.8372 C.3     1  UNL1        0.0936
     28 C         139.7907  141.0277  166.3285 C.3     1  UNL1        0.0216
     29 C         139.2224  139.4672  162.7241 C.ar    1  UNL1        0.2202
     30 N         138.0648  139.9704  161.9137 N.ar    1  UNL1       -0.2112
     31 C         138.0671  139.8096  160.4223 C.ar    1  UNL1        0.1147
     32 C         139.2270  139.1457  159.7414 C.ar    1  UNL1        0.0960
     33 CL        139.2294  138.9849  158.2500 Cl      1  UNL1       -0.0790
     34 C         140.3846  138.6425  160.5518 C.ar    1  UNL1        0.1147
     35 N         140.3822  138.8033  162.0432 N.ar    1  UNL1       -0.2112
@<TRIPOS>BOND
     1    11    12    2
     2    12    10    1
     3    10     3    1
     4     3     4   ar
     5     4     5   ar
     6     5     6   ar
     7     6     2    1
     8     2     1    1
     9     1    19    1
    10    20    19    1
    11    20    21    1
    12    21    22    1
    13    22    23    1
    14    23    24    1
    15    24    25    1
    16    25    26    1
    17    26    29    1
    18    29    30   ar
    19    30    31   ar
    20    31    32   ar
    21    32    33    1
    22    32    34   ar
    23    34    35   ar
    24    26    27    1
    25    27    28    1
    26     6     7   ar
    27     7     8   ar
    28     8     9    1
    29    12    13   am
    30    13    14    1
    31    14    15    1
    32    15    16    1
    33    16    17    1
    34    17    18    1
    35     8     3   ar
    36    18    13    1
    37    22    20    1
    38    28    23    1
    39    35    29   ar
@<TRIPOS>MOLECULE
*****
 35 39 0 0 0
SMALL
GASTEIGER

@<TRIPOS>ATOM
      1 C         141.1214  140.7918  168.1608 C.3     1  UNL1        0.2054
      2 O         141.3307  142.1093  167.4751 O.3     1  UNL1       -0.4754
      3 C         139.9075  142.6960  163.2466 C.ar    1  UNL1        0.0146
      4 C         141.1704  141.9321  163.5136 C.ar    1  UNL1        0.0016
      5 C         141.6448  141.7366  164.9231 C.ar    1  UNL1        0.0367
      6 C         140.8562  142.3049  166.0655 C.ar    1  UNL1        0.1408
      7 C         139.5933  143.0688  165.7985 C.ar    1  UNL1        0.0662
      8 C         139.1189  143.2644  164.3890 C.ar    1  UNL1        0.1396
      9 F         137.8559  144.0283  164.1218 F       1  UNL1       -0.2044
     10 C         139.4331  142.8916  161.8370 C.3     1  UNL1        0.1138
     11 O         139.0728  145.4505  161.5683 O.2     1  UNL1       -0.2745
     12 C         139.7241  144.1761  161.1191 C.2     1  UNL1        0.2301
     13 N         140.6664  144.1862  159.9521 N.am    1  UNL1       -0.2793
     14 C         140.9574  145.4707  159.2342 C.3     1  UNL1        0.0934
     15 C         141.8998  145.4808  158.0673 C.3     1  UNL1        0.0216
     16 C         142.5511  144.2064  157.6181 C.3     1  UNL1        0.0035
     17 C         142.2601  142.9219  158.3360 C.3     1  UNL1        0.0216
     18 C         141.3178  142.9118  159.5030 C.3     1  UNL1        0.0934
     19 C         139.7356  140.3465  168.5231 C.3     1  UNL1        0.0473
     20 C         138.9236  139.5510  167.5445 C.3     1  UNL1        0.0037
     21 C         137.7142  138.7204  167.2321 C.3     1  UNL1        0.0001
     22 C         138.7264  139.0036  166.1620 C.3     1  UNL1        0.0002
     23 C         139.1970  138.8510  164.7459 C.3     1  UNL1        0.0034
     24 C         138.3701  139.3937  163.6182 C.3     1  UNL1        0.0216
     25 C         138.8407  139.2411  162.2021 C.3     1  UNL1        0.0936
     26 N         140.1382  138.5459  161.9138 N.pl3   1  UNL1       -0.2782
     27 C         140.9651  138.0033  163.0415 C.3     1  UNL1        0.0936
     28 C         140.4945  138.1558  164.4575 C.3     1  UNL1        0.0216
     29 C         140.6088  138.3933  160.4977 C.ar    1  UNL1        0.2202
     30 N         142.0635  138.1658  160.2112 N.ar    1  UNL1       -0.2112
     31 C         142.5341  138.0132  158.7951 C.ar    1  UNL1        0.1147
     32 C         141.5500  138.0882  157.6655 C.ar    1  UNL1        0.0960
     33 CL        142.0206  137.9357  156.2495 Cl      1  UNL1       -0.0790
     34 C         140.0953  138.3158  157.9521 C.ar    1  UNL1        0.1147
     35 N         139.6247  138.4684  159.3681 N.ar    1  UNL1       -0.2112
@<TRIPOS>BOND
     1    11    12    2
     2    12    10    1
     3    10     3    1
     4     3     4   ar
     5     4     5   ar
     6     5     6   ar
     7     6     2    1
     8     2     1    1
     9     1    19    1
    10    20    19    1
    11    20    21    1
    12    21    22    1
    13    22    23    1
    14    23    24    1
    15    24    25    1
    16    25    26    1
    17    26    29    1
    18    29    30   ar
    19    30    31   ar
    20    31    32   ar
    21    32    33    1
    22    32    34   ar
    23    34    35   ar
    24    26    27    1
    25    27    28    1
    26     6     7   ar
    27     7     8   ar
    28     8     9    1
    29    12    13   am
    30    13    14    1
    31    14    15    1
    32    15    16    1
    33    16    17    1
    34    17    18    1
    35     8     3   ar
    36    18    13    1
    37    22    20    1
    38    28    23    1
    39    35    29   ar
@<TRIPOS>MOLECULE
*****
 35 39 0 0 0
SMALL
GASTEIGER

@<TRIPOS>ATOM
      1 C         140.8430  140.3088  168.5546 C.3     1  UNL1        0.2054
      2 O         141.7628  139.4985  167.6901 O.3     1  UNL1       -0.4754
      3 C         144.2953  141.5315  164.5751 C.ar    1  UNL1        0.0146
      4 C         143.3705  142.3410  165.4349 C.ar    1  UNL1        0.0016
      5 C         142.5263  141.6633  166.4732 C.ar    1  UNL1        0.0367
      6 C         142.6070  140.1762  166.6518 C.ar    1  UNL1        0.1408
      7 C         143.5319  139.3667  165.7920 C.ar    1  UNL1        0.0662
      8 C         144.3761  140.0443  164.7537 C.ar    1  UNL1        0.1396
      9 F         145.3010  139.2348  163.8938 F       1  UNL1       -0.2044
     10 C         145.1396  142.2091  163.5368 C.3     1  UNL1        0.1138
     11 O         144.3124  144.4243  162.4604 O.2     1  UNL1       -0.2745
     12 C         144.4880  142.9359  162.3979 C.2     1  UNL1        0.2301
     13 N         144.0120  142.1744  161.1964 N.am    1  UNL1       -0.2793
     14 C         143.3604  142.9012  160.0575 C.3     1  UNL1        0.0934
     15 C         142.8844  142.1397  158.8561 C.3     1  UNL1        0.0216
     16 C         143.0600  140.6513  158.7936 C.3     1  UNL1        0.0035
     17 C         143.7116  139.9245  159.9324 C.3     1  UNL1        0.0216
     18 C         144.1876  140.6860  161.1338 C.3     1  UNL1        0.0934
     19 C         139.3730  140.0105  168.5715 C.3     1  UNL1        0.0473
     20 C         138.6967  139.5013  167.3333 C.3     1  UNL1        0.0037
     21 C         137.8057  138.5016  166.6575 C.3     1  UNL1        0.0001
     22 C         138.4164  139.6188  165.8645 C.3     1  UNL1        0.0002
     23 C         138.6070  140.3317  164.5586 C.3     1  UNL1        0.0034
     24 C         139.1556  141.7276  164.5392 C.3     1  UNL1        0.0216
     25 C         139.3463  142.4405  163.2333 C.3     1  UNL1        0.0936
     26 N         138.9883  141.7575  161.9467 N.pl3   1  UNL1       -0.2782
     27 C         138.4397  140.3616  161.9661 C.3     1  UNL1        0.0936
     28 C         138.2491  139.6487  163.2720 C.3     1  UNL1        0.0216
     29 C         139.1790  142.4704  160.6408 C.ar    1  UNL1        0.2202
     30 N         138.6591  141.8629  159.3718 N.ar    1  UNL1       -0.2112
     31 C         138.8498  142.5758  158.0659 C.ar    1  UNL1        0.1147
     32 C         139.5603  143.8963  158.0290 C.ar    1  UNL1        0.0960
     33 CL        139.7510  144.6092  156.7231 Cl      1  UNL1       -0.0790
     34 C         140.0802  144.5038  159.2981 C.ar    1  UNL1        0.1147
     35 N         139.8895  143.7909  160.6040 N.ar    1  UNL1       -0.2112
@<TRIPOS>BOND
     1    11    12    2
     2    12    10    1
     3    10     3    1
     4     3     4   ar
     5     4     5   ar
     6     5     6   ar
     7     6     2    1
     8     2     1    1
     9     1    19    1
    10    20    19    1
    11    20    21    1
    12    21    22    1
    13    22    23    1
    14    23    24    1
    15    24    25    1
    16    25    26    1
    17    26    29    1
    18    29    30   ar
    19    30    31   ar
    20    31    32   ar
    21    32    33    1
    22    32    34   ar
    23    34    35   ar
    24    26    27    1
    25    27    28    1
    26     6     7   ar
    27     7     8   ar
    28     8     9    1
    29    12    13   am
    30    13    14    1
    31    14    15    1
    32    15    16    1
    33    16    17    1
    34    17    18    1
    35     8     3   ar
    36    18    13    1
    37    22    20    1
    38    28    23    1
    39    35    29   ar
@<TRIPOS>MOLECULE
*****
 35 39 0 0 0
SMALL
GASTEIGER

@<TRIPOS>ATOM
      1 C         141.0023  140.7780  167.6085 C.3     1  UNL1        0.2054
      2 O         140.9917  142.2338  167.2472 O.3     1  UNL1       -0.4754
      3 C         139.6004  143.5298  163.1687 C.ar    1  UNL1        0.0146
      4 C         139.0083  144.1551  164.3968 C.ar    1  UNL1        0.0016
      5 C         139.4721  143.7231  165.7563 C.ar    1  UNL1        0.0367
      6 C         140.5279  142.6658  165.8876 C.ar    1  UNL1        0.1408
      7 C         141.1200  142.0405  164.6595 C.ar    1  UNL1        0.0662
      8 C         140.6563  142.4725  163.3000 C.ar    1  UNL1        0.1396
      9 F         141.2484  141.8472  162.0718 F       1  UNL1       -0.2044
     10 C         139.1366  143.9618  161.8091 C.3     1  UNL1        0.1138
     11 O         140.0678  146.3641  161.4747 O.2     1  UNL1       -0.2745
     12 C         139.9497  144.9410  161.0154 C.2     1  UNL1        0.2301
     13 N         140.6448  144.4972  159.7624 N.am    1  UNL1       -0.2793
     14 C         141.4579  145.4764  158.9687 C.3     1  UNL1        0.0934
     15 C         142.1528  145.0325  157.7157 C.3     1  UNL1        0.0216
     16 C         142.0347  143.6095  157.2565 C.3     1  UNL1        0.0035
     17 C         141.2217  142.6302  158.0501 C.3     1  UNL1        0.0216
     18 C         140.5267  143.0741  159.3031 C.3     1  UNL1        0.0934
     19 C         139.7739  140.1396  168.1861 C.3     1  UNL1        0.0473
     20 C         138.8025  139.4333  167.2874 C.3     1  UNL1        0.0037
     21 C         137.6019  138.5519  167.1096 C.3     1  UNL1        0.0001
     22 C         138.3208  139.0913  165.9087 C.3     1  UNL1        0.0002
     23 C         138.4576  139.2053  164.4193 C.3     1  UNL1        0.0034
     24 C         139.2933  138.2142  163.6649 C.3     1  UNL1        0.0216
     25 C         139.4301  138.3282  162.1755 C.3     1  UNL1        0.0936
     26 N         138.7313  139.4334  161.4406 N.pl3   1  UNL1       -0.2782
     27 C         137.8957  140.4245  162.1950 C.3     1  UNL1        0.0936
     28 C         137.7588  140.3105  163.6844 C.3     1  UNL1        0.0216
     29 C         138.8682  139.5474  159.9512 C.ar    1  UNL1        0.2202
     30 N         139.9112  138.7459  159.2303 N.ar    1  UNL1       -0.2112
     31 C         140.0481  138.8599  157.7409 C.ar    1  UNL1        0.1147
     32 C         139.1419  139.7754  156.9724 C.ar    1  UNL1        0.0960
     33 CL        139.2788  139.8894  155.4830 Cl      1  UNL1       -0.0790
     34 C         138.0989  140.5769  157.6932 C.ar    1  UNL1        0.1147
     35 N         137.9621  140.4629  159.1826 N.ar    1  UNL1       -0.2112
@<TRIPOS>BOND
     1    11    12    2
     2    12    10    1
     3    10     3    1
     4     3     4   ar
     5     4     5   ar
     6     5     6   ar
     7     6     2    1
     8     2     1    1
     9     1    19    1
    10    20    19    1
    11    20    21    1
    12    21    22    1
    13    22    23    1
    14    23    24    1
    15    24    25    1
    16    25    26    1
    17    26    29    1
    18    29    30   ar
    19    30    31   ar
    20    31    32   ar
    21    32    33    1
    22    32    34   ar
    23    34    35   ar
    24    26    27    1
    25    27    28    1
    26     6     7   ar
    27     7     8   ar
    28     8     9    1
    29    12    13   am
    30    13    14    1
    31    14    15    1
    32    15    16    1
    33    16    17    1
    34    17    18    1
    35     8     3   ar
    36    18    13    1
    37    22    20    1
    38    28    23    1
    39    35    29   ar
@<TRIPOS>MOLECULE
*****
 35 39 0 0 0
SMALL
GASTEIGER

@<TRIPOS>ATOM
      1 C         138.3916  139.3394  167.7474 C.3     1  UNL1        0.2054
      2 O         137.9734  139.6904  166.3504 O.3     1  UNL1       -0.4754
      3 C         140.6882  138.7525  162.8862 C.ar    1  UNL1        0.0146
      4 C         139.8696  140.0094  162.8786 C.ar    1  UNL1        0.0016
      5 C         138.9647  140.3220  164.0333 C.ar    1  UNL1        0.0367
      6 C         138.8784  139.3777  165.1956 C.ar    1  UNL1        0.1408
      7 C         139.6970  138.1208  165.2032 C.ar    1  UNL1        0.0662
      8 C         140.6019  137.8082  164.0485 C.ar    1  UNL1        0.1396
      9 F         141.4205  136.5513  164.0560 F       1  UNL1       -0.2044
     10 C         141.5932  138.4398  161.7315 C.3     1  UNL1        0.1138
     11 O         142.2161  139.9365  159.7013 O.2     1  UNL1       -0.2745
     12 C         142.4372  139.5217  161.1258 C.2     1  UNL1        0.2301
     13 N         143.5024  140.1889  161.9445 N.am    1  UNL1       -0.2793
     14 C         144.3465  141.2708  161.3388 C.3     1  UNL1        0.0934
     15 C         145.4117  141.9380  162.1575 C.3     1  UNL1        0.0216
     16 C         145.6327  141.5232  163.5819 C.3     1  UNL1        0.0035
     17 C         144.7887  140.4412  164.1877 C.3     1  UNL1        0.0216
     18 C         143.7235  139.7741  163.3689 C.3     1  UNL1        0.0934
     19 C         139.6530  139.9152  168.3198 C.3     1  UNL1        0.0473
     20 C         140.0199  141.3426  168.0408 C.3     1  UNL1        0.0037
     21 C         140.3566  142.7179  168.5360 C.3     1  UNL1        0.0001
     22 C         140.3187  142.4397  167.0625 C.3     1  UNL1        0.0002
     23 C         140.4694  142.9125  165.6470 C.3     1  UNL1        0.0034
     24 C         139.3512  143.6598  164.9828 C.3     1  UNL1        0.0216
     25 C         139.5019  144.1326  163.5673 C.3     1  UNL1        0.0936
     26 N         140.7707  143.8580  162.8159 N.pl3   1  UNL1       -0.2782
     27 C         141.8889  143.1107  163.4800 C.3     1  UNL1        0.0936
     28 C         141.7382  142.6379  164.8956 C.3     1  UNL1        0.0216
     29 C         140.9214  144.3308  161.4003 C.ar    1  UNL1        0.2202
     30 N         141.9988  143.7570  160.5286 N.ar    1  UNL1       -0.2112
     31 C         142.1494  144.2298  159.1131 C.ar    1  UNL1        0.1147
     32 C         141.2227  145.2764  158.5692 C.ar    1  UNL1        0.0960
     33 CL        141.3733  145.7491  157.1537 Cl      1  UNL1       -0.0790
     34 C         140.1453  145.8501  159.4409 C.ar    1  UNL1        0.1147
     35 N         139.9946  145.3773  160.8565 N.ar    1  UNL1       -0.2112
@<TRIPOS>BOND
     1    11    12    2
     2    12    10    1
     3    10     3    1
     4     3     4   ar
     5     4     5   ar
     6     5     6   ar
     7     6     2    1
     8     2     1    1
     9     1    19    1
    10    20    19    1
    11    20    21    1
    12    21    22    1
    13    22    23    1
    14    23    24    1
    15    24    25    1
    16    25    26    1
    17    26    29    1
    18    29    30   ar
    19    30    31   ar
    20    31    32   ar
    21    32    33    1
    22    32    34   ar
    23    34    35   ar
    24    26    27    1
    25    27    28    1
    26     6     7   ar
    27     7     8   ar
    28     8     9    1
    29    12    13   am
    30    13    14    1
    31    14    15    1
    32    15    16    1
    33    16    17    1
    34    17    18    1
    35     8     3   ar
    36    18    13    1
    37    22    20    1
    38    28    23    1
    39    35    29   ar
