@<TRIPOS>MOLECULE
*****
 29 32 0 0 0
SMALL
GASTEIGER

@<TRIPOS>ATOM
      1 C         141.7434  139.2012  163.9378 C.ar    1  UNL1        0.1491
      2 N         143.0331  138.7332  163.3314 N.ar    1  UNL1       -0.1977
      3 C         143.0230  137.9894  162.0289 C.ar    1  UNL1        0.2149
      4 N         144.3128  137.5213  161.4225 N.pl3   1  UNL1       -0.3274
      5 N         141.7233  137.7135  161.3327 N.ar    1  UNL1       -0.2124
      6 C         140.4336  138.1816  161.9391 C.ar    1  UNL1        0.1041
      7 C         139.0087  138.0573  161.4872 C.ar    1  UNL1        0.0394
      8 C         138.1382  138.7243  162.5105 C.ar    1  UNL1        0.0779
      9 N         139.0250  139.2609  163.5948 N.ar    1  UNL1       -0.3168
     10 C         140.4437  138.9255  163.2416 C.ar    1  UNL1        0.1101
     11 H         145.1658  137.7023  161.8794 H       1  UNL1        0.1452
     12 H         144.3062  137.0331  160.5676 H       1  UNL1        0.1452
     13 N         141.7535  139.9451  165.2403 N.pl3   1  UNL1       -0.3119
     14 H         141.7869  140.9290  165.2450 H       1  UNL1        0.1486
     15 C         141.7127  139.1898  166.5356 C.3     1  UNL1        0.1383
     16 C         143.4093  142.7114  170.0855 C.3     1  UNL1        0.0754
     17 C         143.0792  141.4146  169.4076 C.ar    1  UNL1        0.1546
     18 C         142.4452  141.2621  168.0568 C.ar    1  UNL1        0.0553
     19 C         142.2994  139.7960  167.7760 C.ar    1  UNL1        0.1201
     20 N         142.8433  139.0422  168.9532 N.ar    1  UNL1       -0.0800
     21 O         143.3252  140.0426  169.9616 O.2     1  UNL1       -0.3580
     22 C         138.5725  140.0026  164.8175 C.3     1  UNL1        0.1543
     23 C         138.6692  141.4987  164.8658 C.ar    1  UNL1        0.1091
     24 N         139.6824  142.1565  165.7550 N.ar    1  UNL1       -0.2439
     25 C         139.7791  143.6526  165.8033 C.ar    1  UNL1        0.0987
     26 C         138.8624  144.4909  164.9624 C.ar    1  UNL1        0.0230
     27 C         137.8492  143.8330  164.0732 C.ar    1  UNL1        0.0325
     28 C         137.7526  142.3370  164.0249 C.ar    1  UNL1        0.1555
     29 F         136.7393  141.6792  163.1358 F       1  UNL1       -0.2029
@<TRIPOS>BOND
     1    16    17    1
     2    17    18   ar
     3    18    19   ar
     4    19    15    1
     5    15    13    1
     6    13     1    1
     7     1     2   ar
     8     2     3   ar
     9     3     4    1
    10     3     5   ar
    11     5     6   ar
    12     6     7   ar
    13     7     8   ar
    14     8     9   ar
    15     9    22    1
    16    22    23    1
    17    23    24   ar
    18    24    25   ar
    19    25    26   ar
    20    26    27   ar
    21    27    28   ar
    22    28    29    1
    23     9    10   ar
    24    19    20   ar
    25    20    21   ar
    26    21    17   ar
    27    10     1   ar
    28    10     6   ar
    29    28    23   ar
    30    13    14    1
    31     4    11    1
    32     4    12    1
@<TRIPOS>MOLECULE
*****
 29 32 0 0 0
SMALL
GASTEIGER

@<TRIPOS>ATOM
      1 C         139.7499  140.2168  167.4005 C.ar    1  UNL1        0.1491
      2 N         139.3399  139.7298  168.7587 N.ar    1  UNL1       -0.1977
      3 C         140.1885  140.0425  169.9553 C.ar    1  UNL1        0.2149
      4 N         139.7785  139.5555  171.3136 N.pl3   1  UNL1       -0.3274
      5 N         141.4473  140.8424  169.7938 N.ar    1  UNL1       -0.2124
      6 C         141.8572  141.3294  168.4356 C.ar    1  UNL1        0.1041
      7 C         143.0357  142.1326  167.9709 C.ar    1  UNL1        0.0394
      8 C         142.9154  142.3163  166.4871 C.ar    1  UNL1        0.0779
      9 N         141.6626  141.6265  166.0347 N.ar    1  UNL1       -0.3168
     10 C         141.0086  141.0166  167.2389 C.ar    1  UNL1        0.1101
     11 H         138.9524  139.0305  171.4196 H       1  UNL1        0.1452
     12 H         140.3355  139.7608  172.0990 H       1  UNL1        0.1452
     13 N         138.9012  139.9040  166.2039 N.pl3   1  UNL1       -0.3119
     14 H         138.4029  140.6230  165.7523 H       1  UNL1        0.1486
     15 C         138.8118  138.4957  165.6952 C.3     1  UNL1        0.1383
     16 C         139.3795  138.1723  160.4556 C.3     1  UNL1        0.0754
     17 C         139.6091  138.0048  161.9285 C.ar    1  UNL1        0.1546
     18 C         138.7503  138.5639  163.0238 C.ar    1  UNL1        0.0553
     19 C         139.3481  138.1535  164.3368 C.ar    1  UNL1        0.1201
     20 N         140.5765  137.3408  164.0530 N.ar    1  UNL1       -0.0800
     21 O         140.7378  137.2489  162.5645 O.2     1  UNL1       -0.3580
     22 C         141.1532  141.5587  164.6255 C.3     1  UNL1        0.1543
     23 C         140.0556  142.4788  164.1795 C.ar    1  UNL1        0.1091
     24 N         138.7082  141.9226  163.8259 N.ar    1  UNL1       -0.2439
     25 C         137.6106  142.8426  163.3799 C.ar    1  UNL1        0.0987
     26 C         137.8605  144.3189  163.2877 C.ar    1  UNL1        0.0230
     27 C         139.2080  144.8749  163.6414 C.ar    1  UNL1        0.0325
     28 C         140.3055  143.9549  164.0873 C.ar    1  UNL1        0.1555
     29 F         141.6530  144.5110  164.4410 F       1  UNL1       -0.2029
@<TRIPOS>BOND
     1    16    17    1
     2    17    18   ar
     3    18    19   ar
     4    19    15    1
     5    15    13    1
     6    13     1    1
     7     1     2   ar
     8     2     3   ar
     9     3     4    1
    10     3     5   ar
    11     5     6   ar
    12     6     7   ar
    13     7     8   ar
    14     8     9   ar
    15     9    22    1
    16    22    23    1
    17    23    24   ar
    18    24    25   ar
    19    25    26   ar
    20    26    27   ar
    21    27    28   ar
    22    28    29    1
    23     9    10   ar
    24    19    20   ar
    25    20    21   ar
    26    21    17   ar
    27    10     1   ar
    28    10     6   ar
    29    28    23   ar
    30    13    14    1
    31     4    11    1
    32     4    12    1
@<TRIPOS>MOLECULE
*****
 29 32 0 0 0
SMALL
GASTEIGER

@<TRIPOS>ATOM
      1 C         140.1246  140.1616  167.5161 C.ar    1  UNL1        0.1491
      2 N         138.9644  139.7389  168.3676 N.ar    1  UNL1       -0.1977
      3 C         138.8890  140.1729  169.8014 C.ar    1  UNL1        0.2149
      4 N         137.7287  139.7502  170.6530 N.pl3   1  UNL1       -0.3274
      5 N         139.9740  141.0296  170.3838 N.ar    1  UNL1       -0.2124
      6 C         141.1342  141.4522  169.5322 C.ar    1  UNL1        0.1041
      7 C         142.3437  142.2888  169.8276 C.ar    1  UNL1        0.0394
      8 C         143.1666  142.3718  168.5762 C.ar    1  UNL1        0.0779
      9 N         142.4657  141.5865  167.5075 N.ar    1  UNL1       -0.3168
     10 C         141.2096  141.0182  168.0984 C.ar    1  UNL1        0.1101
     11 H         137.0166  139.1880  170.2708 H       1  UNL1        0.1452
     12 H         137.6792  140.0350  171.5941 H       1  UNL1        0.1452
     13 N         140.2000  139.7276  166.0822 N.pl3   1  UNL1       -0.3119
     14 H         141.0761  139.6133  165.6478 H       1  UNL1        0.1486
     15 C         138.9405  139.4676  165.3101 C.3     1  UNL1        0.1383
     16 C         137.5710  144.1705  163.3383 C.3     1  UNL1        0.0754
     17 C         137.7503  142.6904  163.5041 C.ar    1  UNL1        0.1546
     18 C         138.4278  142.0079  164.6552 C.ar    1  UNL1        0.0553
     19 C         138.3798  140.5288  164.4105 C.ar    1  UNL1        0.1201
     20 N         137.6726  140.2972  163.1081 N.ar    1  UNL1       -0.0800
     21 O         137.2835  141.6332  162.5479 O.2     1  UNL1       -0.3580
     22 C         142.9379  141.4021  166.0958 C.3     1  UNL1        0.1543
     23 C         142.8030  142.5222  165.1073 C.ar    1  UNL1        0.1091
     24 N         141.6663  142.5259  164.1287 N.ar    1  UNL1       -0.2439
     25 C         141.5312  143.6460  163.1402 C.ar    1  UNL1        0.0987
     26 C         142.5330  144.7624  163.1304 C.ar    1  UNL1        0.0230
     27 C         143.6697  144.7587  164.1091 C.ar    1  UNL1        0.0325
     28 C         143.8047  143.6386  165.0975 C.ar    1  UNL1        0.1555
     29 F         144.9414  143.6349  166.0762 F       1  UNL1       -0.2029
@<TRIPOS>BOND
     1    16    17    1
     2    17    18   ar
     3    18    19   ar
     4    19    15    1
     5    15    13    1
     6    13     1    1
     7     1     2   ar
     8     2     3   ar
     9     3     4    1
    10     3     5   ar
    11     5     6   ar
    12     6     7   ar
    13     7     8   ar
    14     8     9   ar
    15     9    22    1
    16    22    23    1
    17    23    24   ar
    18    24    25   ar
    19    25    26   ar
    20    26    27   ar
    21    27    28   ar
    22    28    29    1
    23     9    10   ar
    24    19    20   ar
    25    20    21   ar
    26    21    17   ar
    27    10     1   ar
    28    10     6   ar
    29    28    23   ar
    30    13    14    1
    31     4    11    1
    32     4    12    1
@<TRIPOS>MOLECULE
*****
 29 32 0 0 0
SMALL
GASTEIGER

@<TRIPOS>ATOM
      1 C         140.1681  140.3745  167.6255 C.ar    1  UNL1        0.1491
      2 N         138.9807  139.8781  168.3961 N.ar    1  UNL1       -0.1977
      3 C         138.8926  140.1172  169.8742 C.ar    1  UNL1        0.2149
      4 N         137.7052  139.6207  170.6448 N.pl3   1  UNL1       -0.3274
      5 N         139.9918  140.8527  170.5819 N.ar    1  UNL1       -0.2124
      6 C         141.1791  141.3492  169.8114 C.ar    1  UNL1        0.1041
      7 C         142.4074  142.0995  170.2336 C.ar    1  UNL1        0.0394
      8 C         143.2546  142.3242  169.0164 C.ar    1  UNL1        0.0779
      9 N         142.5500  141.7127  167.8418 N.ar    1  UNL1       -0.3168
     10 C         141.2672  141.1101  168.3332 C.ar    1  UNL1        0.1101
     11 H         136.9837  139.1379  170.1804 H       1  UNL1        0.1452
     12 H         137.6473  139.7776  171.6150 H       1  UNL1        0.1452
     13 N         140.2562  140.1354  166.1473 N.pl3   1  UNL1       -0.3119
     14 H         140.5013  140.8730  165.5431 H       1  UNL1        0.1486
     15 C         139.9709  138.7725  165.5897 C.3     1  UNL1        0.1383
     16 C         143.6195  138.0450  161.8428 C.3     1  UNL1        0.0754
     17 C         142.3347  137.9815  162.6145 C.ar    1  UNL1        0.1546
     18 C         142.0648  138.6433  163.9333 C.ar    1  UNL1        0.0553
     19 C         140.6578  138.3159  164.3368 C.ar    1  UNL1        0.1201
     20 N         140.0580  137.4518  163.2674 N.ar    1  UNL1       -0.0800
     21 O         141.0945  137.2452  162.2030 O.2     1  UNL1       -0.3580
     22 C         143.0418  141.7051  166.4248 C.3     1  UNL1        0.1543
     23 C         142.7115  142.8472  165.5101 C.ar    1  UNL1        0.1091
     24 N         141.2798  143.1719  165.2027 N.ar    1  UNL1       -0.2439
     25 C         140.9494  144.3139  164.2881 C.ar    1  UNL1        0.0987
     26 C         142.0510  145.1312  163.6808 C.ar    1  UNL1        0.0230
     27 C         143.4827  144.8064  163.9883 C.ar    1  UNL1        0.0325
     28 C         143.8130  143.6644  164.9029 C.ar    1  UNL1        0.1555
     29 F         145.2448  143.3397  165.2103 F       1  UNL1       -0.2029
@<TRIPOS>BOND
     1    16    17    1
     2    17    18   ar
     3    18    19   ar
     4    19    15    1
     5    15    13    1
     6    13     1    1
     7     1     2   ar
     8     2     3   ar
     9     3     4    1
    10     3     5   ar
    11     5     6   ar
    12     6     7   ar
    13     7     8   ar
    14     8     9   ar
    15     9    22    1
    16    22    23    1
    17    23    24   ar
    18    24    25   ar
    19    25    26   ar
    20    26    27   ar
    21    27    28   ar
    22    28    29    1
    23     9    10   ar
    24    19    20   ar
    25    20    21   ar
    26    21    17   ar
    27    10     1   ar
    28    10     6   ar
    29    28    23   ar
    30    13    14    1
    31     4    11    1
    32     4    12    1
@<TRIPOS>MOLECULE
*****
 29 32 0 0 0
SMALL
GASTEIGER

@<TRIPOS>ATOM
      1 C         139.4351  140.0838  165.6172 C.ar    1  UNL1        0.1491
      2 N         138.4109  139.0069  165.8202 N.ar    1  UNL1       -0.1977
      3 C         137.9644  138.6483  167.2065 C.ar    1  UNL1        0.2149
      4 N         136.9401  137.5713  167.4095 N.pl3   1  UNL1       -0.3274
      5 N         138.5420  139.3666  168.3899 N.ar    1  UNL1       -0.2124
      6 C         139.5662  140.4435  168.1869 C.ar    1  UNL1        0.1041
      7 C         140.3077  141.3185  169.1537 C.ar    1  UNL1        0.0394
      8 C         141.2126  142.2178  168.3648 C.ar    1  UNL1        0.0779
      9 N         141.0303  141.8987  166.9105 N.ar    1  UNL1       -0.3168
     10 C         140.0128  140.8021  166.8005 C.ar    1  UNL1        0.1101
     11 H         136.5610  137.0998  166.6328 H       1  UNL1        0.1452
     12 H         136.6470  137.3359  168.3194 H       1  UNL1        0.1452
     13 N         139.8817  140.4424  164.2308 N.pl3   1  UNL1       -0.3119
     14 H         140.8345  140.3839  163.9900 H       1  UNL1        0.1486
     15 C         138.8766  140.8901  163.2114 C.3     1  UNL1        0.1383
     16 C         139.9893  145.9297  162.0955 C.3     1  UNL1        0.0754
     17 C         139.2356  144.6657  162.3861 C.ar    1  UNL1        0.1546
     18 C         139.8416  143.3219  162.6634 C.ar    1  UNL1        0.0553
     19 C         138.7242  142.3493  162.8989 C.ar    1  UNL1        0.1201
     20 N         137.4277  143.0920  162.7672 N.ar    1  UNL1       -0.0800
     21 O         137.7438  144.5236  162.4503 O.2     1  UNL1       -0.3580
     22 C         141.7408  142.5601  165.7669 C.3     1  UNL1        0.1543
     23 C         142.9610  141.9218  165.1721 C.ar    1  UNL1        0.1091
     24 N         143.0247  140.4320  165.0103 N.ar    1  UNL1       -0.2439
     25 C         144.2448  139.7936  164.4155 C.ar    1  UNL1        0.0987
     26 C         145.4013  140.6453  163.9825 C.ar    1  UNL1        0.0230
     27 C         145.3375  142.1352  164.1443 C.ar    1  UNL1        0.0325
     28 C         144.1174  142.7734  164.7391 C.ar    1  UNL1        0.1555
     29 F         144.0536  144.2633  164.9010 F       1  UNL1       -0.2029
@<TRIPOS>BOND
     1    16    17    1
     2    17    18   ar
     3    18    19   ar
     4    19    15    1
     5    15    13    1
     6    13     1    1
     7     1     2   ar
     8     2     3   ar
     9     3     4    1
    10     3     5   ar
    11     5     6   ar
    12     6     7   ar
    13     7     8   ar
    14     8     9   ar
    15     9    22    1
    16    22    23    1
    17    23    24   ar
    18    24    25   ar
    19    25    26   ar
    20    26    27   ar
    21    27    28   ar
    22    28    29    1
    23     9    10   ar
    24    19    20   ar
    25    20    21   ar
    26    21    17   ar
    27    10     1   ar
    28    10     6   ar
    29    28    23   ar
    30    13    14    1
    31     4    11    1
    32     4    12    1
@<TRIPOS>MOLECULE
*****
 29 32 0 0 0
SMALL
GASTEIGER

@<TRIPOS>ATOM
      1 C         140.5433  138.2549  163.2956 C.ar    1  UNL1        0.1491
      2 N         141.0013  137.7217  161.9704 N.ar    1  UNL1       -0.1977
      3 C         142.4636  137.6946  161.6378 C.ar    1  UNL1        0.2149
      4 N         142.9216  137.1614  160.3126 N.pl3   1  UNL1       -0.3274
      5 N         143.4681  138.2007  162.6303 N.ar    1  UNL1       -0.2124
      6 C         143.0101  138.7338  163.9554 C.ar    1  UNL1        0.1041
      7 C         143.7621  139.2961  165.1252 C.ar    1  UNL1        0.0394
      8 C         142.7644  139.6707  166.1808 C.ar    1  UNL1        0.0779
      9 N         141.3958  139.3400  165.6634 N.ar    1  UNL1       -0.3168
     10 C         141.5477  138.7610  164.2881 C.ar    1  UNL1        0.1101
     11 H         142.2623  136.8293  159.6612 H       1  UNL1        0.1452
     12 H         143.8814  137.1436  160.0943 H       1  UNL1        0.1452
     13 N         139.0809  138.2820  163.6282 N.pl3   1  UNL1       -0.3119
     14 H         138.7544  137.8463  164.4484 H       1  UNL1        0.1486
     15 C         138.1158  138.9730  162.7111 C.3     1  UNL1        0.1383
     16 C         137.8382  143.8894  164.6172 C.3     1  UNL1        0.0754
     17 C         137.7954  142.7174  163.6819 C.ar    1  UNL1        0.1546
     18 C         138.0832  141.2902  164.0432 C.ar    1  UNL1        0.0553
     19 C         137.9231  140.4576  162.8059 C.ar    1  UNL1        0.1201
     20 N         137.5363  141.3701  161.6799 N.ar    1  UNL1       -0.0800
     21 O         137.4575  142.7667  162.2214 O.2     1  UNL1       -0.3580
     22 C         140.1025  139.5512  166.3933 C.3     1  UNL1        0.1543
     23 C         140.0598  140.4379  167.6024 C.ar    1  UNL1        0.1091
     24 N         139.7261  139.8592  168.9454 N.ar    1  UNL1       -0.2439
     25 C         139.6834  140.7458  170.1546 C.ar    1  UNL1        0.0987
     26 C         139.9744  142.2113  170.0206 C.ar    1  UNL1        0.0230
     27 C         140.3081  142.7899  168.6776 C.ar    1  UNL1        0.0325
     28 C         140.3508  141.9033  167.4685 C.ar    1  UNL1        0.1555
     29 F         140.6846  142.4819  166.1255 F       1  UNL1       -0.2029
@<TRIPOS>BOND
     1    16    17    1
     2    17    18   ar
     3    18    19   ar
     4    19    15    1
     5    15    13    1
     6    13     1    1
     7     1     2   ar
     8     2     3   ar
     9     3     4    1
    10     3     5   ar
    11     5     6   ar
    12     6     7   ar
    13     7     8   ar
    14     8     9   ar
    15     9    22    1
    16    22    23    1
    17    23    24   ar
    18    24    25   ar
    19    25    26   ar
    20    26    27   ar
    21    27    28   ar
    22    28    29    1
    23     9    10   ar
    24    19    20   ar
    25    20    21   ar
    26    21    17   ar
    27    10     1   ar
    28    10     6   ar
    29    28    23   ar
    30    13    14    1
    31     4    11    1
    32     4    12    1
@<TRIPOS>MOLECULE
*****
 29 32 0 0 0
SMALL
GASTEIGER

@<TRIPOS>ATOM
      1 C         140.6209  142.9331  162.1220 C.ar    1  UNL1        0.1491
      2 N         141.9803  143.5474  161.9649 N.ar    1  UNL1       -0.1977
      3 C         142.4027  144.6731  162.8616 C.ar    1  UNL1        0.2149
      4 N         143.7622  145.2874  162.7046 N.pl3   1  UNL1       -0.3274
      5 N         141.4658  145.1846  163.9155 N.ar    1  UNL1       -0.2124
      6 C         140.1064  144.5703  164.0726 C.ar    1  UNL1        0.1041
      7 C         138.9761  144.8617  165.0146 C.ar    1  UNL1        0.0394
      8 C         137.8550  143.9160  164.7000 C.ar    1  UNL1        0.0779
      9 N         138.2925  143.0402  163.5636 N.ar    1  UNL1       -0.3168
     10 C         139.6839  143.4445  163.1758 C.ar    1  UNL1        0.1101
     11 H         144.3771  144.9517  162.0129 H       1  UNL1        0.1452
     12 H         144.0394  146.0263  163.2931 H       1  UNL1        0.1452
     13 N         140.1984  141.8073  161.2252 N.pl3   1  UNL1       -0.3119
     14 H         139.2666  141.7501  160.9126 H       1  UNL1        0.1486
     15 C         141.1957  140.7687  160.8047 C.3     1  UNL1        0.1383
     16 C         142.7613  138.3820  165.2470 C.3     1  UNL1        0.0754
     17 C         142.3618  138.6226  163.8212 C.ar    1  UNL1        0.1546
     18 C         141.9573  139.9401  163.2292 C.ar    1  UNL1        0.0553
     19 C         141.6422  139.7196  161.7794 C.ar    1  UNL1        0.1201
     20 N         141.8519  138.2658  161.4754 N.ar    1  UNL1       -0.0800
     21 O         142.2966  137.5878  162.7373 O.2     1  UNL1       -0.3580
     22 C         137.4810  141.9512  162.9268 C.3     1  UNL1        0.1543
     23 C         137.9038  140.5191  163.0702 C.ar    1  UNL1        0.1091
     24 N         137.8883  139.6096  161.8776 N.ar    1  UNL1       -0.2439
     25 C         138.3111  138.1776  162.0209 C.ar    1  UNL1        0.0987
     26 C         138.7494  137.6552  163.3570 C.ar    1  UNL1        0.0230
     27 C         138.7649  138.5648  164.5496 C.ar    1  UNL1        0.0325
     28 C         138.3421  139.9967  164.4062 C.ar    1  UNL1        0.1555
     29 F         138.3576  140.9063  165.5988 F       1  UNL1       -0.2029
@<TRIPOS>BOND
     1    16    17    1
     2    17    18   ar
     3    18    19   ar
     4    19    15    1
     5    15    13    1
     6    13     1    1
     7     1     2   ar
     8     2     3   ar
     9     3     4    1
    10     3     5   ar
    11     5     6   ar
    12     6     7   ar
    13     7     8   ar
    14     8     9   ar
    15     9    22    1
    16    22    23    1
    17    23    24   ar
    18    24    25   ar
    19    25    26   ar
    20    26    27   ar
    21    27    28   ar
    22    28    29    1
    23     9    10   ar
    24    19    20   ar
    25    20    21   ar
    26    21    17   ar
    27    10     1   ar
    28    10     6   ar
    29    28    23   ar
    30    13    14    1
    31     4    11    1
    32     4    12    1
@<TRIPOS>MOLECULE
*****
 29 32 0 0 0
SMALL
GASTEIGER

@<TRIPOS>ATOM
      1 C         142.6338  139.9824  167.3753 C.ar    1  UNL1        0.1491
      2 N         143.0788  138.8509  168.2537 N.ar    1  UNL1       -0.1977
      3 C         142.6649  138.8127  169.6948 C.ar    1  UNL1        0.2149
      4 N         143.1100  137.6811  170.5733 N.pl3   1  UNL1       -0.3274
      5 N         141.8059  139.9060  170.2578 N.ar    1  UNL1       -0.2124
      6 C         141.3608  141.0375  169.3794 C.ar    1  UNL1        0.1041
      7 C         140.5168  142.2473  169.6515 C.ar    1  UNL1        0.0394
      8 C         140.4092  143.0332  168.3784 C.ar    1  UNL1        0.0779
      9 N         141.1866  142.3092  167.3195 N.ar    1  UNL1       -0.3168
     10 C         141.7748  141.0757  167.9381 C.ar    1  UNL1        0.1101
     11 H         143.6738  136.9635  170.2039 H       1  UNL1        0.1452
     12 H         142.8383  137.6560  171.5192 H       1  UNL1        0.1452
     13 N         143.0477  140.0206  165.9340 N.pl3   1  UNL1       -0.3119
     14 H         143.2008  140.8851  165.4886 H       1  UNL1        0.1486
     15 C         143.2284  138.7416  165.1714 C.3     1  UNL1        0.1383
     16 C         138.6035  137.6844  162.8533 C.3     1  UNL1        0.0754
     17 C         140.0762  137.8325  163.0973 C.ar    1  UNL1        0.1546
     18 C         140.7148  138.3371  164.3573 C.ar    1  UNL1        0.0553
     19 C         142.2019  138.3184  164.1628 C.ar    1  UNL1        0.1201
     20 N         142.4825  137.8023  162.7827 N.ar    1  UNL1       -0.0800
     21 O         141.1687  137.5020  162.1242 O.2     1  UNL1       -0.3580
     22 C         141.3476  142.7425  165.8925 C.3     1  UNL1        0.1543
     23 C         140.1451  143.1422  165.0898 C.ar    1  UNL1        0.1091
     24 N         140.1247  144.4612  164.3758 N.ar    1  UNL1       -0.2439
     25 C         138.9223  144.8610  163.5731 C.ar    1  UNL1        0.0987
     26 C         137.7402  143.9417  163.4845 C.ar    1  UNL1        0.0230
     27 C         137.7607  142.6227  164.1985 C.ar    1  UNL1        0.0325
     28 C         138.9631  142.2230  165.0012 C.ar    1  UNL1        0.1555
     29 F         138.9836  140.9040  165.7152 F       1  UNL1       -0.2029
@<TRIPOS>BOND
     1    16    17    1
     2    17    18   ar
     3    18    19   ar
     4    19    15    1
     5    15    13    1
     6    13     1    1
     7     1     2   ar
     8     2     3   ar
     9     3     4    1
    10     3     5   ar
    11     5     6   ar
    12     6     7   ar
    13     7     8   ar
    14     8     9   ar
    15     9    22    1
    16    22    23    1
    17    23    24   ar
    18    24    25   ar
    19    25    26   ar
    20    26    27   ar
    21    27    28   ar
    22    28    29    1
    23     9    10   ar
    24    19    20   ar
    25    20    21   ar
    26    21    17   ar
    27    10     1   ar
    28    10     6   ar
    29    28    23   ar
    30    13    14    1
    31     4    11    1
    32     4    12    1
@<TRIPOS>MOLECULE
*****
 29 32 0 0 0
SMALL
GASTEIGER

@<TRIPOS>ATOM
      1 C         140.3482  144.5258  164.0898 C.ar    1  UNL1        0.1491
      2 N         140.5606  145.0939  162.7180 N.ar    1  UNL1       -0.1977
      3 C         141.7605  144.6872  161.9152 C.ar    1  UNL1        0.2149
      4 N         141.9729  145.2554  160.5433 N.pl3   1  UNL1       -0.3274
      5 N         142.7483  143.7122  162.4843 N.ar    1  UNL1       -0.2124
      6 C         142.5359  143.1440  163.8562 C.ar    1  UNL1        0.1041
      7 C         143.3325  142.1709  164.6739 C.ar    1  UNL1        0.0394
      8 C         142.6247  141.9763  165.9820 C.ar    1  UNL1        0.0779
      9 N         141.3908  142.8291  165.9728 N.ar    1  UNL1       -0.3168
     10 C         141.3359  143.5508  164.6590 C.ar    1  UNL1        0.1101
     11 H         141.3247  145.8953  160.1698 H       1  UNL1        0.1452
     12 H         142.7605  144.9884  160.0164 H       1  UNL1        0.1452
     13 N         139.1481  144.9326  164.8926 N.pl3   1  UNL1       -0.3119
     14 H         139.2046  145.6984  165.5086 H       1  UNL1        0.1486
     15 C         137.8622  144.1725  164.7568 C.3     1  UNL1        0.1383
     16 C         138.2019  139.1479  163.1695 C.3     1  UNL1        0.0754
     17 C         137.9629  140.6288  163.1765 C.ar    1  UNL1        0.1546
     18 C         138.1648  141.5490  164.3437 C.ar    1  UNL1        0.0553
     19 C         137.8068  142.9382  163.9061 C.ar    1  UNL1        0.1201
     20 N         137.3836  142.8767  162.4684 N.ar    1  UNL1       -0.0800
     21 O         137.4801  141.4494  162.0175 O.2     1  UNL1       -0.3580
     22 C         140.3878  142.9407  167.0826 C.3     1  UNL1        0.1543
     23 C         140.6244  142.2289  168.3816 C.ar    1  UNL1        0.1091
     24 N         141.4620  142.8715  169.4471 N.ar    1  UNL1       -0.2439
     25 C         141.6986  142.1598  170.7462 C.ar    1  UNL1        0.0987
     26 C         141.0974  140.8054  170.9796 C.ar    1  UNL1        0.0230
     27 C         140.2598  140.1629  169.9141 C.ar    1  UNL1        0.0325
     28 C         140.0232  140.8746  168.6151 C.ar    1  UNL1        0.1555
     29 F         139.1856  140.2321  167.5495 F       1  UNL1       -0.2029
@<TRIPOS>BOND
     1    16    17    1
     2    17    18   ar
     3    18    19   ar
     4    19    15    1
     5    15    13    1
     6    13     1    1
     7     1     2   ar
     8     2     3   ar
     9     3     4    1
    10     3     5   ar
    11     5     6   ar
    12     6     7   ar
    13     7     8   ar
    14     8     9   ar
    15     9    22    1
    16    22    23    1
    17    23    24   ar
    18    24    25   ar
    19    25    26   ar
    20    26    27   ar
    21    27    28   ar
    22    28    29    1
    23     9    10   ar
    24    19    20   ar
    25    20    21   ar
    26    21    17   ar
    27    10     1   ar
    28    10     6   ar
    29    28    23   ar
    30    13    14    1
    31     4    11    1
    32     4    12    1
