@<TRIPOS>MOLECULE
*****
 29 33 0 0 0
SMALL
GASTEIGER

@<TRIPOS>ATOM
      1 C         140.5661  140.3767  170.4130 C.3     1  UNL1        0.0438
      2 C         140.8262  141.1224  169.1376 C.3     1  UNL1        0.1398
      3 C         141.8037  141.8089  170.0448 C.3     1  UNL1        0.0438
      4 O         141.4258  142.1065  168.1774 O.3     1  UNL1       -0.4826
      5 C         140.9574  142.1451  166.7529 C.ar    1  UNL1        0.1360
      6 C         141.5570  143.1292  165.7927 C.ar    1  UNL1        0.0366
      7 C         141.0887  143.1678  164.3682 C.ar    1  UNL1        0.0032
      8 C         140.0208  142.2222  163.9039 C.ar    1  UNL1        0.0036
      9 C         139.4212  141.2381  164.8641 C.ar    1  UNL1        0.0008
     10 C         139.8896  141.1996  166.2887 C.ar    1  UNL1        0.0357
     11 C         139.2900  140.2155  167.2489 C.3     1  UNL1        0.1580
     12 C         138.7235  140.1373  165.8621 C.3     1  UNL1        0.2351
     13 O         137.6844  139.0556  165.8460 O.2     1  UNL1       -0.4478
     14 C         137.6087  138.4652  167.2228 C.2     1  UNL1        0.2770
     15 N         136.7002  137.3532  167.6565 N.pl3   1  UNL1       -0.3133
     16 N         138.6009  139.1820  168.0899 N.2     1  UNL1       -0.2202
     17 C         139.7583  140.1769  168.6734 C.3     1  UNL1        0.1141
     18 C         139.9256  140.4514  168.4055 C.3     1  UNL1        0.1501
     19 O         139.7497  140.1628  168.6871 O.3     1  UNL1       -0.3532
     20 C         139.9256  140.4514  168.4055 C.3     1  UNL1        0.1501
     21 H         136.0801  136.9439  167.0106 H       1  UNL1        0.1466
     22 H         136.7240  137.0326  168.5870 H       1  UNL1        0.1466
     23 C         139.5525  142.2608  162.4794 C.ar    1  UNL1        0.0460
     24 C         140.3873  141.6407  161.3984 C.ar    1  UNL1        0.0054
     25 C         139.9190  141.6793  159.9739 C.ar    1  UNL1        0.0208
     26 C         138.6159  142.3380  159.6304 C.ar    1  UNL1        0.1013
     27 N         137.7811  142.9581  160.7114 N.ar    1  UNL1       -0.2165
     28 C         138.2494  142.9195  162.1359 C.ar    1  UNL1        0.2222
     29 F         137.4146  143.5397  163.2169 F       1  UNL1       -0.1832
@<TRIPOS>BOND
     1     1     2    1
     2     2     3    1
     3     2     4    1
     4     4     5    1
     5     5     6   ar
     6     6     7   ar
     7     7     8   ar
     8     8    23    1
     9    23    24   ar
    10    24    25   ar
    11    25    26   ar
    12    26    27   ar
    13    27    28   ar
    14    28    29    1
    15     8     9   ar
    16     9    10   ar
    17    10    11    1
    18    11    12    1
    19    12    13    1
    20    13    14    1
    21    14    15    1
    22    14    16    2
    23    11    17    1
    24    17    18    1
    25    18    19    1
    26    19    20    1
    27    17     2    1
    28    10     5   ar
    29    16    11    1
    30    20    17    1
    31    28    23   ar
    32    15    21    1
    33    15    22    1
@<TRIPOS>MOLECULE
*****
 29 33 0 0 0
SMALL
GASTEIGER

@<TRIPOS>ATOM
      1 C         140.5707  143.2070  169.9432 C.3     1  UNL1        0.0438
      2 C         141.2102  142.0594  169.2191 C.3     1  UNL1        0.1398
      3 C         141.5893  141.7209  170.6304 C.3     1  UNL1        0.0438
      4 O         141.9813  140.7943  168.9852 O.3     1  UNL1       -0.4826
      5 C         142.1512  140.2663  167.5916 C.ar    1  UNL1        0.1360
      6 C         142.9224  139.0011  167.3577 C.ar    1  UNL1        0.0366
      7 C         143.0923  138.4731  165.9640 C.ar    1  UNL1        0.0032
      8 C         142.4910  139.2103  164.8042 C.ar    1  UNL1        0.0036
      9 C         141.7198  140.4754  165.0381 C.ar    1  UNL1        0.0008
     10 C         141.5499  141.0034  166.4318 C.ar    1  UNL1        0.0357
     11 C         140.7788  142.2686  166.6657 C.3     1  UNL1        0.1580
     12 C         140.8649  141.8643  165.2237 C.3     1  UNL1        0.2351
     13 O         140.1251  142.8854  164.4111 O.2     1  UNL1       -0.4478
     14 C         139.5818  143.9206  165.3508 C.2     1  UNL1        0.2770
     15 N         138.7761  145.1255  164.9649 N.pl3   1  UNL1       -0.3133
     16 N         139.9858  143.5394  166.7443 N.2     1  UNL1       -0.2202
     17 C         140.6089  142.7966  168.0594 C.3     1  UNL1        0.1141
     18 C         140.8241  142.4436  167.9941 C.3     1  UNL1        0.1501
     19 O         140.5979  142.8146  168.0627 O.3     1  UNL1       -0.3532
     20 C         140.8241  142.4436  167.9941 C.3     1  UNL1        0.1501
     21 H         138.5606  145.2911  164.0186 H       1  UNL1        0.1466
     22 H         138.4627  145.7507  165.6578 H       1  UNL1        0.1466
     23 C         142.6609  138.6823  163.4105 C.ar    1  UNL1        0.0460
     24 C         143.9659  138.8640  162.6935 C.ar    1  UNL1        0.0054
     25 C         144.1358  138.3360  161.2999 C.ar    1  UNL1        0.0208
     26 C         143.0007  137.6262  160.6232 C.ar    1  UNL1        0.1013
     27 N         141.6958  137.4445  161.3401 N.ar    1  UNL1       -0.2165
     28 C         141.5258  137.9725  162.7338 C.ar    1  UNL1        0.2222
     29 F         140.2209  137.7908  163.4508 F       1  UNL1       -0.1832
@<TRIPOS>BOND
     1     1     2    1
     2     2     3    1
     3     2     4    1
     4     4     5    1
     5     5     6   ar
     6     6     7   ar
     7     7     8   ar
     8     8    23    1
     9    23    24   ar
    10    24    25   ar
    11    25    26   ar
    12    26    27   ar
    13    27    28   ar
    14    28    29    1
    15     8     9   ar
    16     9    10   ar
    17    10    11    1
    18    11    12    1
    19    12    13    1
    20    13    14    1
    21    14    15    1
    22    14    16    2
    23    11    17    1
    24    17    18    1
    25    18    19    1
    26    19    20    1
    27    17     2    1
    28    10     5   ar
    29    16    11    1
    30    20    17    1
    31    28    23   ar
    32    15    21    1
    33    15    22    1
@<TRIPOS>MOLECULE
*****
 29 33 0 0 0
SMALL
GASTEIGER

@<TRIPOS>ATOM
      1 C         137.4072  140.1709  160.5876 C.3     1  UNL1        0.0438
      2 C         137.8228  139.7444  161.9644 C.3     1  UNL1        0.1398
      3 C         137.4825  138.4100  161.3698 C.3     1  UNL1        0.0438
      4 O         138.1201  138.8544  163.1346 O.3     1  UNL1       -0.4826
      5 C         138.6134  139.4469  164.4213 C.ar    1  UNL1        0.1360
      6 C         138.9108  138.5569  165.5915 C.ar    1  UNL1        0.0366
      7 C         139.4041  139.1495  166.8782 C.ar    1  UNL1        0.0032
      8 C         139.5999  140.6321  166.9946 C.ar    1  UNL1        0.0036
      9 C         139.3026  141.5221  165.8244 C.ar    1  UNL1        0.0008
     10 C         138.8093  140.9295  164.5377 C.ar    1  UNL1        0.0357
     11 C         138.5119  141.8195  163.3675 C.3     1  UNL1        0.1580
     12 C         138.9963  142.5521  164.5835 C.3     1  UNL1        0.2351
     13 O         139.0416  144.0152  164.2559 O.2     1  UNL1       -0.4478
     14 C         138.5851  144.1869  162.8374 C.2     1  UNL1        0.2770
     15 N         138.4752  145.4873  162.0978 N.pl3   1  UNL1       -0.3133
     16 N         138.2577  142.8299  162.2883 N.2     1  UNL1       -0.2202
     17 C         138.0186  141.2269  162.0808 C.3     1  UNL1        0.1141
     18 C         138.1016  140.9786  162.4073 C.3     1  UNL1        0.1501
     19 O         138.0144  141.2396  162.0641 O.3     1  UNL1       -0.3532
     20 C         138.1016  140.9786  162.4073 C.3     1  UNL1        0.1501
     21 H         138.7145  146.3304  162.5463 H       1  UNL1        0.1466
     22 H         138.1638  145.4976  161.1640 H       1  UNL1        0.1466
     23 C         140.0932  141.2246  168.2813 C.ar    1  UNL1        0.0460
     24 C         141.2389  142.1928  168.2706 C.ar    1  UNL1        0.0054
     25 C         141.7322  142.7854  169.5572 C.ar    1  UNL1        0.0208
     26 C         141.0798  142.4098  170.8546 C.ar    1  UNL1        0.1013
     27 N         139.9341  141.4417  170.8654 N.ar    1  UNL1       -0.2165
     28 C         139.4408  140.8491  169.5787 C.ar    1  UNL1        0.2222
     29 F         138.2952  139.8809  169.5895 F       1  UNL1       -0.1832
@<TRIPOS>BOND
     1     1     2    1
     2     2     3    1
     3     2     4    1
     4     4     5    1
     5     5     6   ar
     6     6     7   ar
     7     7     8   ar
     8     8    23    1
     9    23    24   ar
    10    24    25   ar
    11    25    26   ar
    12    26    27   ar
    13    27    28   ar
    14    28    29    1
    15     8     9   ar
    16     9    10   ar
    17    10    11    1
    18    11    12    1
    19    12    13    1
    20    13    14    1
    21    14    15    1
    22    14    16    2
    23    11    17    1
    24    17    18    1
    25    18    19    1
    26    19    20    1
    27    17     2    1
    28    10     5   ar
    29    16    11    1
    30    20    17    1
    31    28    23   ar
    32    15    21    1
    33    15    22    1
@<TRIPOS>MOLECULE
*****
 29 33 0 0 0
SMALL
GASTEIGER

@<TRIPOS>ATOM
      1 C         142.9293  141.8610  170.2981 C.3     1  UNL1        0.0438
      2 C         141.7913  141.2140  169.5655 C.3     1  UNL1        0.1398
      3 C         141.4481  140.8275  170.9736 C.3     1  UNL1        0.0438
      4 O         140.5342  140.4328  169.3220 O.3     1  UNL1       -0.4826
      5 C         140.0155  140.2629  167.9248 C.ar    1  UNL1        0.1360
      6 C         138.7584  139.4817  167.6813 C.ar    1  UNL1        0.0366
      7 C         138.2397  139.3117  166.2842 C.ar    1  UNL1        0.0032
      8 C         138.9782  139.9230  165.1304 C.ar    1  UNL1        0.0036
      9 C         140.2354  140.7043  165.3740 C.ar    1  UNL1        0.0008
     10 C         140.7540  140.8742  166.7712 C.ar    1  UNL1        0.0357
     11 C         142.0111  141.6554  167.0147 C.3     1  UNL1        0.1580
     12 C         141.6158  141.5705  165.5702 C.3     1  UNL1        0.2351
     13 O         142.6350  142.3216  164.7657 O.2     1  UNL1       -0.4478
     14 C         143.6602  142.8707  165.7129 C.2     1  UNL1        0.2770
     15 N         144.8603  143.6881  165.3364 N.pl3   1  UNL1       -0.3133
     16 N         143.2747  142.4590  167.1029 N.2     1  UNL1       -0.2202
     17 C         142.5298  141.8253  168.4118 C.3     1  UNL1        0.1141
     18 C         142.1791  141.6074  168.3439 C.3     1  UNL1        0.1501
     19 O         142.5477  141.8365  168.4153 O.3     1  UNL1       -0.3532
     20 C         142.1791  141.6074  168.3439 C.3     1  UNL1        0.1501
     21 H         145.0293  143.9080  164.3918 H       1  UNL1        0.1466
     22 H         145.4788  144.0046  166.0338 H       1  UNL1        0.1466
     23 C         138.4596  139.7531  163.7333 C.ar    1  UNL1        0.0460
     24 C         138.6070  138.4344  163.0337 C.ar    1  UNL1        0.0054
     25 C         138.0883  138.2645  161.6366 C.ar    1  UNL1        0.0208
     26 C         137.4222  139.4132  160.9389 C.ar    1  UNL1        0.1013
     27 N         137.2748  140.7319  161.6384 N.ar    1  UNL1       -0.2165
     28 C         137.7935  140.9019  163.0357 C.ar    1  UNL1        0.2222
     29 F         137.6460  142.2205  163.7351 F       1  UNL1       -0.1832
@<TRIPOS>BOND
     1     1     2    1
     2     2     3    1
     3     2     4    1
     4     4     5    1
     5     5     6   ar
     6     6     7   ar
     7     7     8   ar
     8     8    23    1
     9    23    24   ar
    10    24    25   ar
    11    25    26   ar
    12    26    27   ar
    13    27    28   ar
    14    28    29    1
    15     8     9   ar
    16     9    10   ar
    17    10    11    1
    18    11    12    1
    19    12    13    1
    20    13    14    1
    21    14    15    1
    22    14    16    2
    23    11    17    1
    24    17    18    1
    25    18    19    1
    26    19    20    1
    27    17     2    1
    28    10     5   ar
    29    16    11    1
    30    20    17    1
    31    28    23   ar
    32    15    21    1
    33    15    22    1
@<TRIPOS>MOLECULE
*****
 29 33 0 0 0
SMALL
GASTEIGER

@<TRIPOS>ATOM
      1 C         141.4904  142.1456  171.4874 C.3     1  UNL1        0.0438
      2 C         141.5858  142.0403  169.9941 C.3     1  UNL1        0.1398
      3 C         142.7654  142.9251  170.2689 C.3     1  UNL1        0.0438
      4 O         142.0910  142.2423  168.5963 O.3     1  UNL1       -0.4826
      5 C         141.3834  141.5961  167.4423 C.ar    1  UNL1        0.1360
      6 C         141.8885  141.7982  166.0445 C.ar    1  UNL1        0.0366
      7 C         141.1809  141.1520  164.8905 C.ar    1  UNL1        0.0032
      8 C         139.9681  140.3036  165.1344 C.ar    1  UNL1        0.0036
      9 C         139.4629  140.1016  166.5323 C.ar    1  UNL1        0.0008
     10 C         140.1706  140.7479  167.6862 C.ar    1  UNL1        0.0357
     11 C         139.6654  140.5458  169.0841 C.3     1  UNL1        0.1580
     12 C         138.8579  139.8397  168.0355 C.3     1  UNL1        0.2351
     13 O         137.7405  139.1121  168.7228 O.2     1  UNL1       -0.4478
     14 C         137.8575  139.3686  170.1961 C.2     1  UNL1        0.2770
     15 N         136.9450  138.8330  171.2593 N.pl3   1  UNL1       -0.3133
     16 N         139.0471  140.2547  170.4194 N.2     1  UNL1       -0.2202
     17 C         140.3730  141.1920  170.2380 C.3     1  UNL1        0.1141
     18 C         140.5140  141.2484  169.8480 C.3     1  UNL1        0.1501
     19 O         140.3658  141.1891  170.2580 O.3     1  UNL1       -0.3532
     20 C         140.5140  141.2484  169.8480 C.3     1  UNL1        0.1501
     21 H         136.1866  138.2559  171.0123 H       1  UNL1        0.1466
     22 H         137.1045  139.0586  172.2043 H       1  UNL1        0.1466
     23 C         139.2604  139.6574  163.9805 C.ar    1  UNL1        0.0460
     24 C         138.5449  140.5043  162.9701 C.ar    1  UNL1        0.0054
     25 C         137.8373  139.8581  161.8161 C.ar    1  UNL1        0.0208
     26 C         137.8452  138.3650  161.6725 C.ar    1  UNL1        0.1013
     27 N         138.5607  137.5181  162.6828 N.ar    1  UNL1       -0.2165
     28 C         139.2684  138.1643  163.8368 C.ar    1  UNL1        0.2222
     29 F         139.9839  137.3174  164.8472 F       1  UNL1       -0.1832
@<TRIPOS>BOND
     1     1     2    1
     2     2     3    1
     3     2     4    1
     4     4     5    1
     5     5     6   ar
     6     6     7   ar
     7     7     8   ar
     8     8    23    1
     9    23    24   ar
    10    24    25   ar
    11    25    26   ar
    12    26    27   ar
    13    27    28   ar
    14    28    29    1
    15     8     9   ar
    16     9    10   ar
    17    10    11    1
    18    11    12    1
    19    12    13    1
    20    13    14    1
    21    14    15    1
    22    14    16    2
    23    11    17    1
    24    17    18    1
    25    18    19    1
    26    19    20    1
    27    17     2    1
    28    10     5   ar
    29    16    11    1
    30    20    17    1
    31    28    23   ar
    32    15    21    1
    33    15    22    1
@<TRIPOS>MOLECULE
*****
 29 33 0 0 0
SMALL
GASTEIGER

@<TRIPOS>ATOM
      1 C         139.7193  138.3553  160.9432 C.3     1  UNL1        0.0438
      2 C         139.2994  138.5513  162.3700 C.3     1  UNL1        0.1398
      3 C         138.0118  138.0506  161.7859 C.3     1  UNL1        0.0438
      4 O         138.4324  138.5735  163.5938 O.3     1  UNL1       -0.4826
      5 C         138.9988  139.0283  164.9061 C.ar    1  UNL1        0.1360
      6 C         138.1317  139.0504  166.1299 C.ar    1  UNL1        0.0366
      7 C         138.6981  139.5053  167.4422 C.ar    1  UNL1        0.0032
      8 C         140.1317  139.9380  167.5308 C.ar    1  UNL1        0.0036
      9 C         140.9987  139.9158  166.3070 C.ar    1  UNL1        0.0008
     10 C         140.4322  139.4610  164.9946 C.ar    1  UNL1        0.0357
     11 C         141.2993  139.4388  163.7708 C.3     1  UNL1        0.1580
     12 C         142.0016  139.9160  165.0075 C.3     1  UNL1        0.2351
     13 O         143.4186  140.2424  164.6392 O.2     1  UNL1       -0.4478
     14 C         143.5921  139.9670  163.1750 C.2     1  UNL1        0.2770
     15 N         144.8539  140.1552  162.3860 N.pl3   1  UNL1       -0.3133
     16 N         142.2824  139.4704  162.6383 N.2     1  UNL1       -0.2202
     17 C         140.7329  138.9840  162.4585 C.3     1  UNL1        0.1141
     18 C         140.4910  138.9902  162.7999 C.3     1  UNL1        0.1501
     19 O         140.7453  138.9837  162.4410 O.3     1  UNL1       -0.3532
     20 C         140.4910  138.9902  162.7999 C.3     1  UNL1        0.1501
     21 H         145.6671  140.4882  162.8300 H       1  UNL1        0.1466
     22 H         144.8688  139.9458  161.4241 H       1  UNL1        0.1466
     23 C         140.6981  140.3928  168.8432 C.ar    1  UNL1        0.0460
     24 C         139.9731  141.4245  169.6558 C.ar    1  UNL1        0.0054
     25 C         140.5395  141.8793  170.9681 C.ar    1  UNL1        0.0208
     26 C         141.8309  141.3025  171.4679 C.ar    1  UNL1        0.1013
     27 N         142.5558  140.2709  170.6554 N.ar    1  UNL1       -0.2165
     28 C         141.9894  139.8160  169.3430 C.ar    1  UNL1        0.2222
     29 F         142.7143  138.7844  168.5304 F       1  UNL1       -0.1832
@<TRIPOS>BOND
     1     1     2    1
     2     2     3    1
     3     2     4    1
     4     4     5    1
     5     5     6   ar
     6     6     7   ar
     7     7     8   ar
     8     8    23    1
     9    23    24   ar
    10    24    25   ar
    11    25    26   ar
    12    26    27   ar
    13    27    28   ar
    14    28    29    1
    15     8     9   ar
    16     9    10   ar
    17    10    11    1
    18    11    12    1
    19    12    13    1
    20    13    14    1
    21    14    15    1
    22    14    16    2
    23    11    17    1
    24    17    18    1
    25    18    19    1
    26    19    20    1
    27    17     2    1
    28    10     5   ar
    29    16    11    1
    30    20    17    1
    31    28    23   ar
    32    15    21    1
    33    15    22    1
@<TRIPOS>MOLECULE
*****
 29 33 0 0 0
SMALL
GASTEIGER

@<TRIPOS>ATOM
      1 C         139.6036  141.6157  170.1451 C.3     1  UNL1        0.0438
      2 C         140.5359  141.6986  168.9728 C.3     1  UNL1        0.1398
      3 C         141.1275  142.7602  169.8519 C.3     1  UNL1        0.0438
      4 O         141.6736  142.1502  168.1059 O.3     1  UNL1       -0.4826
      5 C         141.8959  141.5115  166.7671 C.ar    1  UNL1        0.1360
      6 C         143.0337  141.9631  165.9002 C.ar    1  UNL1        0.0366
      7 C         143.2560  141.3243  164.5614 C.ar    1  UNL1        0.0032
      8 C         142.3405  140.2338  164.0894 C.ar    1  UNL1        0.0036
      9 C         141.2027  139.7822  164.9563 C.ar    1  UNL1        0.0008
     10 C         140.9804  140.4210  166.2952 C.ar    1  UNL1        0.0357
     11 C         139.8427  139.9694  167.1620 C.3     1  UNL1        0.1580
     12 C         139.9398  139.2409  165.8543 C.3     1  UNL1        0.2351
     13 O         138.8264  138.2372  165.7990 O.2     1  UNL1       -0.4478
     14 C         138.0412  138.3453  167.0725 C.2     1  UNL1        0.2770
     15 N         136.8390  137.5266  167.4391 N.pl3   1  UNL1       -0.3133
     16 N         138.6693  139.4158  167.9149 N.2     1  UNL1       -0.2202
     17 C         139.6204  140.6081  168.5009 C.3     1  UNL1        0.1141
     18 C         139.9378  140.7342  168.2590 C.3     1  UNL1        0.1501
     19 O         139.6041  140.6017  168.5132 O.3     1  UNL1       -0.3532
     20 C         139.9378  140.7342  168.2590 C.3     1  UNL1        0.1501
     21 H         136.4997  136.8439  166.8162 H       1  UNL1        0.1466
     22 H         136.3892  137.6719  168.3028 H       1  UNL1        0.1466
     23 C         142.5628  139.5950  162.7506 C.ar    1  UNL1        0.0460
     24 C         143.5769  138.4999  162.6012 C.ar    1  UNL1        0.0054
     25 C         143.7992  137.8611  161.2623 C.ar    1  UNL1        0.0208
     26 C         143.0074  138.3174  160.0729 C.ar    1  UNL1        0.1013
     27 N         141.9933  139.4125  160.2222 N.ar    1  UNL1       -0.2165
     28 C         141.7709  140.0513  161.5611 C.ar    1  UNL1        0.2222
     29 F         140.7568  141.1464  161.7105 F       1  UNL1       -0.1832
@<TRIPOS>BOND
     1     1     2    1
     2     2     3    1
     3     2     4    1
     4     4     5    1
     5     5     6   ar
     6     6     7   ar
     7     7     8   ar
     8     8    23    1
     9    23    24   ar
    10    24    25   ar
    11    25    26   ar
    12    26    27   ar
    13    27    28   ar
    14    28    29    1
    15     8     9   ar
    16     9    10   ar
    17    10    11    1
    18    11    12    1
    19    12    13    1
    20    13    14    1
    21    14    15    1
    22    14    16    2
    23    11    17    1
    24    17    18    1
    25    18    19    1
    26    19    20    1
    27    17     2    1
    28    10     5   ar
    29    16    11    1
    30    20    17    1
    31    28    23   ar
    32    15    21    1
    33    15    22    1
@<TRIPOS>MOLECULE
*****
 29 33 0 0 0
SMALL
GASTEIGER

@<TRIPOS>ATOM
      1 C         140.8149  145.6106  160.6256 C.3     1  UNL1        0.0438
      2 C         140.4267  145.2001  162.0152 C.3     1  UNL1        0.1398
      3 C         139.2425  146.0466  161.6532 C.3     1  UNL1        0.0438
      4 O         139.6272  145.0836  163.2791 O.3     1  UNL1       -0.4826
      5 C         140.1468  144.2632  164.4222 C.ar    1  UNL1        0.1360
      6 C         139.3473  144.1467  165.6861 C.ar    1  UNL1        0.0366
      7 C         139.8668  143.3263  166.8293 C.ar    1  UNL1        0.0032
      8 C         141.1859  142.6223  166.7087 C.ar    1  UNL1        0.0036
      9 C         141.9854  142.7387  165.4448 C.ar    1  UNL1        0.0008
     10 C         141.4658  143.5592  164.3016 C.ar    1  UNL1        0.0357
     11 C         142.2653  143.6757  163.0378 C.3     1  UNL1        0.1580
     12 C         142.9099  142.8242  164.0912 C.3     1  UNL1        0.2351
     13 O         144.2144  142.3219  163.5469 O.2     1  UNL1       -0.4478
     14 C         144.3759  142.8628  162.1573 C.2     1  UNL1        0.2770
     15 N         145.5380  142.6112  161.2428 N.pl3   1  UNL1       -0.3133
     16 N         143.1713  143.6995  161.8425 N.2     1  UNL1       -0.2202
     17 C         141.7457  144.4961  161.8946 C.3     1  UNL1        0.1141
     18 C         141.5227  144.4636  162.2472 C.3     1  UNL1        0.1501
     19 O         141.7571  144.4978  161.8765 O.3     1  UNL1       -0.3532
     20 C         141.5227  144.4636  162.2472 C.3     1  UNL1        0.1501
     21 H         146.2858  142.0447  161.5415 H       1  UNL1        0.1466
     22 H         145.5530  143.0126  160.3440 H       1  UNL1        0.1466
     23 C         141.7055  141.8018  167.8518 C.ar    1  UNL1        0.0460
     24 C         142.8726  142.2915  168.6569 C.ar    1  UNL1        0.0054
     25 C         143.3921  141.4711  169.8001 C.ar    1  UNL1        0.0208
     26 C         142.7446  140.1610  170.1383 C.ar    1  UNL1        0.1013
     27 N         141.5775  139.6713  169.3333 N.ar    1  UNL1       -0.2165
     28 C         141.0579  140.4917  168.1900 C.ar    1  UNL1        0.2222
     29 F         139.8908  140.0021  167.3850 F       1  UNL1       -0.1832
@<TRIPOS>BOND
     1     1     2    1
     2     2     3    1
     3     2     4    1
     4     4     5    1
     5     5     6   ar
     6     6     7   ar
     7     7     8   ar
     8     8    23    1
     9    23    24   ar
    10    24    25   ar
    11    25    26   ar
    12    26    27   ar
    13    27    28   ar
    14    28    29    1
    15     8     9   ar
    16     9    10   ar
    17    10    11    1
    18    11    12    1
    19    12    13    1
    20    13    14    1
    21    14    15    1
    22    14    16    2
    23    11    17    1
    24    17    18    1
    25    18    19    1
    26    19    20    1
    27    17     2    1
    28    10     5   ar
    29    16    11    1
    30    20    17    1
    31    28    23   ar
    32    15    21    1
    33    15    22    1
@<TRIPOS>MOLECULE
*****
 29 33 0 0 0
SMALL
GASTEIGER

@<TRIPOS>ATOM
      1 C         138.4443  141.9691  159.8963 C.3     1  UNL1        0.0438
      2 C         138.5245  141.0882  161.1079 C.3     1  UNL1        0.1398
      3 C         137.8581  140.1492  160.1467 C.3     1  UNL1        0.0438
      4 O         138.3733  139.8812  161.9856 O.3     1  UNL1       -0.4826
      5 C         138.8606  139.9193  163.4037 C.ar    1  UNL1        0.1360
      6 C         138.7094  138.7123  164.2813 C.ar    1  UNL1        0.0366
      7 C         139.1967  138.7503  165.6994 C.ar    1  UNL1        0.0032
      8 C         139.8353  139.9954  166.2399 C.ar    1  UNL1        0.0036
      9 C         139.9865  141.2024  165.3622 C.ar    1  UNL1        0.0008
     10 C         139.4992  141.1643  163.9441 C.ar    1  UNL1        0.0357
     11 C         139.6504  142.3713  163.0664 C.3     1  UNL1        0.1580
     12 C         140.1828  142.5572  164.4564 C.3     1  UNL1        0.2351
     13 O         140.7302  143.9499  164.5608 O.2     1  UNL1       -0.4478
     14 C         140.5361  144.6247  163.2354 C.2     1  UNL1        0.2770
     15 N         140.9387  146.0287  162.8935 N.pl3   1  UNL1       -0.3133
     16 N         139.8688  143.6491  162.3117 N.2     1  UNL1       -0.2202
     17 C         139.1631  142.3333  161.6483 C.3     1  UNL1        0.1141
     18 C         139.1209  141.9965  161.8932 C.3     1  UNL1        0.1501
     19 O         139.1652  142.3505  161.6358 O.3     1  UNL1       -0.3532
     20 C         139.1209  141.9965  161.8932 C.3     1  UNL1        0.1501
     21 H         141.3733  146.5950  163.5714 H       1  UNL1        0.1466
     22 H         140.7682  146.3838  161.9912 H       1  UNL1        0.1466
     23 C         140.3226  140.0334  167.6580 C.ar    1  UNL1        0.0460
     24 C         139.3481  140.2322  168.7809 C.ar    1  UNL1        0.0054
     25 C         139.8354  140.2702  170.1990 C.ar    1  UNL1        0.0208
     26 C         141.2973  140.1095  170.4942 C.ar    1  UNL1        0.1013
     27 N         142.2718  139.9108  169.3714 N.ar    1  UNL1       -0.2165
     28 C         141.7845  139.8727  167.9532 C.ar    1  UNL1        0.2222
     29 F         142.7590  139.6740  166.8304 F       1  UNL1       -0.1832
@<TRIPOS>BOND
     1     1     2    1
     2     2     3    1
     3     2     4    1
     4     4     5    1
     5     5     6   ar
     6     6     7   ar
     7     7     8   ar
     8     8    23    1
     9    23    24   ar
    10    24    25   ar
    11    25    26   ar
    12    26    27   ar
    13    27    28   ar
    14    28    29    1
    15     8     9   ar
    16     9    10   ar
    17    10    11    1
    18    11    12    1
    19    12    13    1
    20    13    14    1
    21    14    15    1
    22    14    16    2
    23    11    17    1
    24    17    18    1
    25    18    19    1
    26    19    20    1
    27    17     2    1
    28    10     5   ar
    29    16    11    1
    30    20    17    1
    31    28    23   ar
    32    15    21    1
    33    15    22    1
