@<TRIPOS>MOLECULE
*****
 36 39 0 0 0
SMALL
GASTEIGER

@<TRIPOS>ATOM
      1 C         141.7147  141.4541  160.6951 C.ar    1  UNL1        0.0537
      2 C         140.9927  140.3067  160.0533 C.ar    1  UNL1        0.0060
      3 C         140.2112  139.3451  160.8986 C.ar    1  UNL1        0.0173
      4 C         140.1517  139.5310  162.3858 C.ar    1  UNL1        0.0594
      5 C         140.8737  140.6784  163.0277 C.ar    1  UNL1        0.0130
      6 C         141.6553  141.6399  162.1824 C.ar    1  UNL1        0.0057
      7 C         140.6351  140.6070  164.5069 C.ar    1  UNL1       -0.0091
      8 C         139.7656  139.4155  164.7792 C.ar    1  UNL1        0.0331
      9 N         139.4668  138.7505  163.4683 N.ar    1  UNL1       -0.3289
     10 C         138.6301  137.5208  163.2739 C.3     1  UNL1        0.1301
     11 C         139.3582  139.0900  166.1856 C.3     1  UNL1        0.0435
     12 C         139.8203  139.9561  167.3198 C.3     1  UNL1        0.0066
     13 C         140.6899  141.1476  167.0475 C.3     1  UNL1        0.0049
     14 C         141.0972  141.4730  165.6411 C.3     1  UNL1        0.0275
     15 C         141.1520  142.0137  168.1817 C.3     1  UNL1        0.0053
     16 C         140.2356  143.0556  168.7514 C.3     1  UNL1        0.0322
     17 C         140.6977  143.9216  169.8856 C.3     1  UNL1        0.1422
     18 O         142.0764  143.7458  170.4501 O.3     1  UNL1       -0.3538
     19 C         142.9928  142.7039  169.8803 C.3     1  UNL1        0.1422
     20 C         142.5307  141.8378  168.7461 C.3     1  UNL1        0.0322
     21 N         141.7935  143.5394  159.1476 N.am    1  UNL1       -0.2761
     22 C         142.4963  142.4157  159.8498 C.2     1  UNL1        0.2490
     23 O         143.9806  142.2535  159.7067 O.2     1  UNL1       -0.2699
     24 C         141.8878  145.6769  157.6736 C.3     1  UNL1        0.0233
     25 C         142.5750  144.5010  158.3022 C.3     1  UNL1        0.0938
     26 C         140.3091  143.7017  159.2906 C.3     1  UNL1        0.0942
     27 C         139.7392  144.3303  160.5275 C.3     1  UNL1        0.0311
     28 C         140.4781  145.4412  161.2130 C.3     1  UNL1        0.0868
     29 C         141.3631  145.1413  162.3864 C.2     1  UNL1        0.2226
     30 O         140.7578  144.8579  163.7292 O.2     1  UNL1       -0.2751
     31 N         142.8533  145.1248  162.2168 N.am    1  UNL1       -0.3020
     32 H         143.2506  145.3108  161.3355 H       1  UNL1        0.1495
     33 C         143.7384  144.8248  163.3902 C.3     1  UNL1        0.1213
     34 C         144.4796  143.5225  163.4570 C.3     1  UNL1        0.1583
     35 O         145.1488  142.9767  162.2306 O.3     1  UNL1       -0.3802
     36 H         144.4763  142.7470  161.5704 H       1  UNL1        0.2105
@<TRIPOS>BOND
     1    24    25    1
     2    25    21    1
     3    21    26    1
     4    26    27    1
     5    27    28    1
     6    28    29    1
     7    29    30    2
     8    29    31   am
     9    31    33    1
    10    33    34    1
    11    34    35    1
    12    21    22   am
    13    22    23    2
    14    22     1    1
    15     1     2   ar
    16     2     3   ar
    17     3     4   ar
    18     4     5   ar
    19     5     6   ar
    20     5     7   ar
    21     7     8   ar
    22     8     9   ar
    23     9    10    1
    24     8    11    1
    25    11    12    1
    26    12    13    1
    27    13    15    1
    28    15    16    1
    29    16    17    1
    30    17    18    1
    31    18    19    1
    32    19    20    1
    33    13    14    1
    34     6     1   ar
    35    14     7    1
    36     9     4   ar
    37    20    15    1
    38    31    32    1
    39    35    36    1
@<TRIPOS>MOLECULE
*****
 36 39 0 0 0
SMALL
GASTEIGER

@<TRIPOS>ATOM
      1 C         139.7836  142.8785  160.8689 C.ar    1  UNL1        0.0537
      2 C         139.2790  141.7723  159.9905 C.ar    1  UNL1        0.0060
      3 C         138.8710  140.4615  160.5949 C.ar    1  UNL1        0.0173
      4 C         138.9676  140.2568  162.0776 C.ar    1  UNL1        0.0594
      5 C         139.4722  141.3630  162.9561 C.ar    1  UNL1        0.0130
      6 C         139.8802  142.6738  162.3517 C.ar    1  UNL1        0.0057
      7 C         139.4572  140.8727  164.3737 C.ar    1  UNL1       -0.0091
      8 C         138.9433  139.4635  164.3713 C.ar    1  UNL1        0.0331
      9 N         138.6407  139.0829  162.9523 N.ar    1  UNL1       -0.3289
     10 C         138.1052  137.7605  162.4892 C.3     1  UNL1        0.1301
     11 C         138.8172  138.7090  165.6615 C.3     1  UNL1        0.0435
     12 C         139.2051  139.3637  166.9541 C.3     1  UNL1        0.0066
     13 C         139.7190  140.7729  166.9565 C.3     1  UNL1        0.0049
     14 C         139.8451  141.5274  165.6662 C.3     1  UNL1        0.0275
     15 C         140.1069  141.4276  168.2492 C.3     1  UNL1        0.0053
     16 C         140.2042  140.6112  169.5038 C.3     1  UNL1        0.0322
     17 C         140.5921  141.2659  170.7964 C.3     1  UNL1        0.1422
     18 O         140.8827  142.7371  170.8344 O.3     1  UNL1       -0.3538
     19 C         140.7854  143.5534  169.5799 C.3     1  UNL1        0.1422
     20 C         140.3975  142.8987  168.2872 C.3     1  UNL1        0.0322
     21 N         141.1495  144.2173  159.1106 N.am    1  UNL1       -0.2761
     22 C         140.1916  144.1893  160.2645 C.2     1  UNL1        0.2490
     23 O         139.6417  145.4721  160.8141 O.2     1  UNL1       -0.2699
     24 C         142.1178  145.5707  157.1154 C.3     1  UNL1        0.0233
     25 C         141.5575  145.5281  158.5062 C.3     1  UNL1        0.0938
     26 C         141.6995  142.9345  158.5610 C.3     1  UNL1        0.0942
     27 C         142.8012  142.2194  159.2855 C.3     1  UNL1        0.0311
     28 C         143.8043  142.9993  160.0827 C.3     1  UNL1        0.0868
     29 C         143.5466  143.2930  161.5309 C.2     1  UNL1        0.2226
     30 O         143.2944  142.1684  162.4909 O.2     1  UNL1       -0.2751
     31 N         143.5410  144.7113  162.0190 N.am    1  UNL1       -0.3020
     32 H         143.7065  145.4494  161.3889 H       1  UNL1        0.1495
     33 C         143.2832  145.0051  163.4673 C.3     1  UNL1        0.1213
     34 C         141.8908  145.3098  163.9344 C.3     1  UNL1        0.1583
     35 O         141.0050  146.2043  163.1189 O.3     1  UNL1       -0.3802
     36 H         141.3730  147.1018  163.1090 H       1  UNL1        0.2105
@<TRIPOS>BOND
     1    24    25    1
     2    25    21    1
     3    21    26    1
     4    26    27    1
     5    27    28    1
     6    28    29    1
     7    29    30    2
     8    29    31   am
     9    31    33    1
    10    33    34    1
    11    34    35    1
    12    21    22   am
    13    22    23    2
    14    22     1    1
    15     1     2   ar
    16     2     3   ar
    17     3     4   ar
    18     4     5   ar
    19     5     6   ar
    20     5     7   ar
    21     7     8   ar
    22     8     9   ar
    23     9    10    1
    24     8    11    1
    25    11    12    1
    26    12    13    1
    27    13    15    1
    28    15    16    1
    29    16    17    1
    30    17    18    1
    31    18    19    1
    32    19    20    1
    33    13    14    1
    34     6     1   ar
    35    14     7    1
    36     9     4   ar
    37    20    15    1
    38    31    32    1
    39    35    36    1
@<TRIPOS>MOLECULE
*****
 36 39 0 0 0
SMALL
GASTEIGER

@<TRIPOS>ATOM
      1 C         139.9531  143.2735  160.7810 C.ar    1  UNL1        0.0537
      2 C         139.3477  142.1291  160.0235 C.ar    1  UNL1        0.0060
      3 C         139.0083  140.8537  160.7364 C.ar    1  UNL1        0.0173
      4 C         139.2744  140.7227  162.2067 C.ar    1  UNL1        0.0594
      5 C         139.8798  141.8671  162.9642 C.ar    1  UNL1        0.0130
      6 C         140.2191  143.1425  162.2513 C.ar    1  UNL1        0.0057
      7 C         140.0266  141.4485  164.3972 C.ar    1  UNL1       -0.0091
      8 C         139.5119  140.0454  164.5253 C.ar    1  UNL1        0.0331
      9 N         139.0470  139.5969  163.1715 N.ar    1  UNL1       -0.3289
     10 C         138.4581  138.2576  162.8405 C.3     1  UNL1        0.1301
     11 C         139.5330  139.3575  165.8580 C.3     1  UNL1        0.0435
     12 C         140.0689  140.0727  167.0627 C.3     1  UNL1        0.0066
     13 C         140.5836  141.4758  166.9346 C.3     1  UNL1        0.0049
     14 C         140.5624  142.1637  165.6018 C.3     1  UNL1        0.0275
     15 C         141.1194  142.1910  168.1394 C.3     1  UNL1        0.0053
     16 C         140.2760  143.2138  168.8412 C.3     1  UNL1        0.0322
     17 C         140.8119  143.9290  170.0459 C.3     1  UNL1        0.1422
     18 O         142.1912  143.6214  170.5488 O.3     1  UNL1       -0.3538
     19 C         143.0347  142.5986  169.8470 C.3     1  UNL1        0.1422
     20 C         142.4988  141.8834  168.6423 C.3     1  UNL1        0.0322
     21 N         141.3197  144.5466  158.9750 N.am    1  UNL1       -0.2761
     22 C         140.2925  144.5489  160.0681 C.2     1  UNL1        0.2490
     23 O         139.6047  145.8265  160.4483 O.2     1  UNL1       -0.2699
     24 C         141.7589  145.8410  156.7655 C.3     1  UNL1        0.0233
     25 C         141.6591  145.8220  158.2621 C.3     1  UNL1        0.0938
     26 C         142.0075  143.2690  158.5948 C.3     1  UNL1        0.0942
     27 C         143.1748  142.7777  159.3985 C.3     1  UNL1        0.0311
     28 C         143.1646  141.3883  159.9639 C.3     1  UNL1        0.0868
     29 C         143.6700  141.1406  161.3542 C.2     1  UNL1        0.2226
     30 O         144.4275  139.8835  161.6640 O.2     1  UNL1       -0.2751
     31 N         143.4179  142.1499  162.4348 N.am    1  UNL1       -0.3020
     32 H         142.9207  142.9750  162.2314 H       1  UNL1        0.1495
     33 C         143.9234  141.9023  163.8252 C.3     1  UNL1        0.1213
     34 C         145.3740  142.1115  164.1443 C.3     1  UNL1        0.1583
     35 O         146.4202  141.8054  163.1139 O.3     1  UNL1       -0.3802
     36 H         146.4291  140.8520  162.9355 H       1  UNL1        0.2105
@<TRIPOS>BOND
     1    24    25    1
     2    25    21    1
     3    21    26    1
     4    26    27    1
     5    27    28    1
     6    28    29    1
     7    29    30    2
     8    29    31   am
     9    31    33    1
    10    33    34    1
    11    34    35    1
    12    21    22   am
    13    22    23    2
    14    22     1    1
    15     1     2   ar
    16     2     3   ar
    17     3     4   ar
    18     4     5   ar
    19     5     6   ar
    20     5     7   ar
    21     7     8   ar
    22     8     9   ar
    23     9    10    1
    24     8    11    1
    25    11    12    1
    26    12    13    1
    27    13    15    1
    28    15    16    1
    29    16    17    1
    30    17    18    1
    31    18    19    1
    32    19    20    1
    33    13    14    1
    34     6     1   ar
    35    14     7    1
    36     9     4   ar
    37    20    15    1
    38    31    32    1
    39    35    36    1
@<TRIPOS>MOLECULE
*****
 36 39 0 0 0
SMALL
GASTEIGER

@<TRIPOS>ATOM
      1 C         141.6039  142.0402  160.6027 C.ar    1  UNL1        0.0537
      2 C         140.9337  140.8944  159.9043 C.ar    1  UNL1        0.0060
      3 C         140.2615  139.8182  160.7042 C.ar    1  UNL1        0.0173
      4 C         140.2596  139.8877  162.2025 C.ar    1  UNL1        0.0594
      5 C         140.9299  141.0335  162.9010 C.ar    1  UNL1        0.0130
      6 C         141.6020  142.1098  162.1011 C.ar    1  UNL1        0.0057
      7 C         140.7669  140.8348  164.3789 C.ar    1  UNL1       -0.0091
      8 C         139.9959  139.5662  164.5937 C.ar    1  UNL1        0.0331
      9 N         139.6824  138.9809  163.2487 N.ar    1  UNL1       -0.3289
     10 C         138.9247  137.7115  162.9944 C.3     1  UNL1        0.1301
     11 C         139.6790  139.1079  165.9863 C.3     1  UNL1        0.0435
     12 C         140.1330  139.9183  167.1641 C.3     1  UNL1        0.0066
     13 C         140.9040  141.1869  166.9493 C.3     1  UNL1        0.0049
     14 C         141.2209  141.6451  165.5566 C.3     1  UNL1        0.0275
     15 C         141.3580  141.9973  168.1271 C.3     1  UNL1        0.0053
     16 C         142.7561  141.8444  168.6485 C.3     1  UNL1        0.0322
     17 C         143.2101  142.6547  169.8263 C.3     1  UNL1        0.1422
     18 O         142.2660  143.6180  170.4827 O.3     1  UNL1       -0.3538
     19 C         140.8678  143.7709  169.9612 C.3     1  UNL1        0.1422
     20 C         140.4138  142.9605  168.7834 C.3     1  UNL1        0.0322
     21 N         141.5278  144.3683  159.4519 N.am    1  UNL1       -0.2761
     22 C         142.2761  143.1165  159.8028 C.2     1  UNL1        0.2490
     23 O         143.6965  142.9410  159.3538 O.2     1  UNL1       -0.2699
     24 C         142.1160  145.4291  157.1543 C.3     1  UNL1        0.0233
     25 C         142.2000  145.4445  158.6520 C.3     1  UNL1        0.0938
     26 C         140.1073  144.5438  159.9009 C.3     1  UNL1        0.0942
     27 C         139.7322  145.7127  160.7627 C.3     1  UNL1        0.0311
     28 C         140.1742  145.7608  162.1953 C.3     1  UNL1        0.0868
     29 C         139.5268  144.8662  163.2104 C.2     1  UNL1        0.2226
     30 O         140.1209  144.7341  164.5813 O.2     1  UNL1       -0.2751
     31 N         138.2851  144.1035  162.8545 N.am    1  UNL1       -0.3020
     32 H         137.8952  144.1902  161.9547 H       1  UNL1        0.1495
     33 C         137.6376  143.2088  163.8696 C.3     1  UNL1        0.1213
     34 C         137.3237  141.7839  163.5217 C.3     1  UNL1        0.1583
     35 O         137.0907  141.3949  162.0919 O.3     1  UNL1       -0.3802
     36 H         136.2829  141.8229  161.7679 H       1  UNL1        0.2105
@<TRIPOS>BOND
     1    24    25    1
     2    25    21    1
     3    21    26    1
     4    26    27    1
     5    27    28    1
     6    28    29    1
     7    29    30    2
     8    29    31   am
     9    31    33    1
    10    33    34    1
    11    34    35    1
    12    21    22   am
    13    22    23    2
    14    22     1    1
    15     1     2   ar
    16     2     3   ar
    17     3     4   ar
    18     4     5   ar
    19     5     6   ar
    20     5     7   ar
    21     7     8   ar
    22     8     9   ar
    23     9    10    1
    24     8    11    1
    25    11    12    1
    26    12    13    1
    27    13    15    1
    28    15    16    1
    29    16    17    1
    30    17    18    1
    31    18    19    1
    32    19    20    1
    33    13    14    1
    34     6     1   ar
    35    14     7    1
    36     9     4   ar
    37    20    15    1
    38    31    32    1
    39    35    36    1
@<TRIPOS>MOLECULE
*****
 36 39 0 0 0
SMALL
GASTEIGER

@<TRIPOS>ATOM
      1 C         140.0441  143.1805  160.7132 C.ar    1  UNL1        0.0537
      2 C         139.4147  142.0426  159.9656 C.ar    1  UNL1        0.0060
      3 C         139.0344  140.7868  160.6925 C.ar    1  UNL1        0.0173
      4 C         139.2835  140.6689  162.1670 C.ar    1  UNL1        0.0594
      5 C         139.9129  141.8069  162.9145 C.ar    1  UNL1        0.0130
      6 C         140.2932  143.0627  162.1876 C.ar    1  UNL1        0.0057
      7 C         140.0354  141.4043  164.3544 C.ar    1  UNL1       -0.0091
      8 C         139.4817  140.0176  164.4966 C.ar    1  UNL1        0.0331
      9 N         139.0170  139.5631  163.1447 N.ar    1  UNL1       -0.3289
     10 C         138.3950  138.2358  162.8265 C.3     1  UNL1        0.1301
     11 C         139.4721  139.3478  165.8386 C.3     1  UNL1        0.0435
     12 C         140.0163  140.0648  167.0385 C.3     1  UNL1        0.0066
     13 C         140.5700  141.4516  166.8963 C.3     1  UNL1        0.0049
     14 C         140.5796  142.1213  165.5542 C.3     1  UNL1        0.0275
     15 C         141.1142  142.1686  168.0962 C.3     1  UNL1        0.0053
     16 C         142.4928  141.8539  168.5967 C.3     1  UNL1        0.0322
     17 C         143.0370  142.5709  169.7966 C.3     1  UNL1        0.1422
     18 O         142.2025  143.6027  170.4960 O.3     1  UNL1       -0.3538
     19 C         140.8239  143.9175  169.9956 C.3     1  UNL1        0.1422
     20 C         140.2798  143.2004  168.7957 C.3     1  UNL1        0.0322
     21 N         141.5671  144.4238  159.0148 N.am    1  UNL1       -0.2761
     22 C         140.4244  144.4363  159.9863 C.2     1  UNL1        0.2490
     23 O         139.6620  145.7047  160.2310 O.2     1  UNL1       -0.2699
     24 C         141.4011  145.9472  156.9167 C.3     1  UNL1        0.0233
     25 C         141.9474  145.6795  158.2879 C.3     1  UNL1        0.0938
     26 C         142.3296  143.1554  158.7700 C.3     1  UNL1        0.0942
     27 C         143.5424  142.8385  159.5939 C.3     1  UNL1        0.0311
     28 C         144.0582  141.4314  159.6591 C.3     1  UNL1        0.0868
     29 C         143.8310  140.6057  160.8905 C.2     1  UNL1        0.2226
     30 O         143.5497  141.2768  162.2022 O.2     1  UNL1       -0.2751
     31 N         143.8850  139.1088  160.8102 N.am    1  UNL1       -0.3020
     32 H         144.0696  138.6684  159.9493 H       1  UNL1        0.1495
     33 C         143.6578  138.2830  162.0417 C.3     1  UNL1        0.1213
     34 C         142.2773  138.1539  162.6140 C.3     1  UNL1        0.1583
     35 O         141.5579  136.8393  162.5478 O.3     1  UNL1       -0.3802
     36 H         141.3710  136.6193  161.6218 H       1  UNL1        0.2105
@<TRIPOS>BOND
     1    24    25    1
     2    25    21    1
     3    21    26    1
     4    26    27    1
     5    27    28    1
     6    28    29    1
     7    29    30    2
     8    29    31   am
     9    31    33    1
    10    33    34    1
    11    34    35    1
    12    21    22   am
    13    22    23    2
    14    22     1    1
    15     1     2   ar
    16     2     3   ar
    17     3     4   ar
    18     4     5   ar
    19     5     6   ar
    20     5     7   ar
    21     7     8   ar
    22     8     9   ar
    23     9    10    1
    24     8    11    1
    25    11    12    1
    26    12    13    1
    27    13    15    1
    28    15    16    1
    29    16    17    1
    30    17    18    1
    31    18    19    1
    32    19    20    1
    33    13    14    1
    34     6     1   ar
    35    14     7    1
    36     9     4   ar
    37    20    15    1
    38    31    32    1
    39    35    36    1
@<TRIPOS>MOLECULE
*****
 36 39 0 0 0
SMALL
GASTEIGER

@<TRIPOS>ATOM
      1 C         142.0878  142.4268  159.4942 C.ar    1  UNL1        0.0537
      2 C         143.5252  142.8540  159.4602 C.ar    1  UNL1        0.0060
      3 C         144.4161  142.5835  160.6362 C.ar    1  UNL1        0.0173
      4 C         143.8696  141.8856  161.8463 C.ar    1  UNL1        0.0594
      5 C         142.4322  141.4584  161.8803 C.ar    1  UNL1        0.0130
      6 C         141.5413  141.7290  160.7043 C.ar    1  UNL1        0.0057
      7 C         142.1770  140.7946  163.2011 C.ar    1  UNL1       -0.0091
      8 C         143.4568  140.8116  163.9833 C.ar    1  UNL1        0.0331
      9 N         144.5028  141.4859  163.1460 N.ar    1  UNL1       -0.3289
     10 C         145.9314  141.7195  163.5393 C.3     1  UNL1        0.1301
     11 C         143.5043  140.2109  165.3569 C.3     1  UNL1        0.0435
     12 C         142.2719  139.5932  165.9483 C.3     1  UNL1        0.0066
     13 C         140.9922  139.5762  165.1661 C.3     1  UNL1        0.0049
     14 C         140.9447  140.1769  163.7925 C.3     1  UNL1        0.0275
     15 C         139.7598  138.9584  165.7575 C.3     1  UNL1        0.0053
     16 C         139.2140  137.6821  165.1893 C.3     1  UNL1        0.0322
     17 C         137.9817  137.0643  165.7807 C.3     1  UNL1        0.1422
     18 O         137.2952  137.7230  166.9405 O.3     1  UNL1       -0.3538
     19 C         137.8410  138.9994  167.5087 C.3     1  UNL1        0.1422
     20 C         139.0733  139.6171  166.9173 C.3     1  UNL1        0.0322
     21 N         140.6911  144.0865  158.0643 N.am    1  UNL1       -0.2761
     22 C         141.1969  142.6974  158.3182 C.2     1  UNL1        0.2490
     23 O         140.8118  141.5788  157.3960 O.2     1  UNL1       -0.2699
     24 C         139.7145  145.7405  156.3149 C.3     1  UNL1        0.0233
     25 C         139.8002  144.3570  156.8883 C.3     1  UNL1        0.0938
     26 C         141.0762  145.2051  158.9865 C.3     1  UNL1        0.0942
     27 C         140.2249  145.5192  160.1809 C.3     1  UNL1        0.0311
     28 C         140.7355  145.2328  161.5621 C.3     1  UNL1        0.0868
     29 C         139.8779  144.4835  162.5383 C.2     1  UNL1        0.2226
     30 O         140.4104  144.1458  163.8993 O.2     1  UNL1       -0.2751
     31 N         138.4878  144.0718  162.1534 N.am    1  UNL1       -0.3020
     32 H         138.1383  144.2935  161.2601 H       1  UNL1        0.1495
     33 C         137.6301  143.3225  163.1297 C.3     1  UNL1        0.1213
     34 C         137.4020  141.8507  162.9519 C.3     1  UNL1        0.1583
     35 O         137.3955  140.9431  164.1461 O.3     1  UNL1       -0.3802
     36 H         138.2808  140.9235  164.5421 H       1  UNL1        0.2105
@<TRIPOS>BOND
     1    24    25    1
     2    25    21    1
     3    21    26    1
     4    26    27    1
     5    27    28    1
     6    28    29    1
     7    29    30    2
     8    29    31   am
     9    31    33    1
    10    33    34    1
    11    34    35    1
    12    21    22   am
    13    22    23    2
    14    22     1    1
    15     1     2   ar
    16     2     3   ar
    17     3     4   ar
    18     4     5   ar
    19     5     6   ar
    20     5     7   ar
    21     7     8   ar
    22     8     9   ar
    23     9    10    1
    24     8    11    1
    25    11    12    1
    26    12    13    1
    27    13    15    1
    28    15    16    1
    29    16    17    1
    30    17    18    1
    31    18    19    1
    32    19    20    1
    33    13    14    1
    34     6     1   ar
    35    14     7    1
    36     9     4   ar
    37    20    15    1
    38    31    32    1
    39    35    36    1
@<TRIPOS>MOLECULE
*****
 36 39 0 0 0
SMALL
GASTEIGER

@<TRIPOS>ATOM
      1 C         142.6770  138.6462  160.7679 C.ar    1  UNL1        0.0537
      2 C         142.5061  140.0201  160.1907 C.ar    1  UNL1        0.0060
      3 C         142.4539  140.2076  158.7034 C.ar    1  UNL1        0.0173
      4 C         142.5725  139.0212  157.7932 C.ar    1  UNL1        0.0594
      5 C         142.7434  137.6473  158.3704 C.ar    1  UNL1        0.0130
      6 C         142.7956  137.4598  159.8578 C.ar    1  UNL1        0.0057
      7 C         142.8327  136.6742  157.2324 C.ar    1  UNL1       -0.0091
      8 C         142.7170  137.4467  155.9518 C.ar    1  UNL1        0.0331
      9 N         142.5562  138.8972  156.2985 N.ar    1  UNL1       -0.3289
     10 C         142.4056  140.0257  155.3218 C.3     1  UNL1        0.1301
     11 C         142.7730  136.7296  154.6356 C.3     1  UNL1        0.0435
     12 C         142.9447  135.2399  154.5999 C.3     1  UNL1        0.0066
     13 C         143.0604  134.4673  155.8805 C.3     1  UNL1        0.0049
     14 C         143.0044  135.1845  157.1967 C.3     1  UNL1        0.0275
     15 C         143.2321  132.9776  155.8448 C.3     1  UNL1        0.0053
     16 C         142.0501  132.0925  155.5814 C.3     1  UNL1        0.0322
     17 C         142.2218  130.6028  155.5457 C.3     1  UNL1        0.1422
     18 O         143.5756  129.9982  155.7734 O.3     1  UNL1       -0.3538
     19 C         144.7576  130.8833  156.0368 C.3     1  UNL1        0.1422
     20 C         144.5859  132.3730  156.0725 C.3     1  UNL1        0.0322
     21 N         141.5101  137.9949  162.9959 N.am    1  UNL1       -0.2761
     22 C         142.7292  138.4587  162.2552 C.2     1  UNL1        0.2490
     23 O         144.0005  138.7350  163.0018 O.2     1  UNL1       -0.2699
     24 C         141.3325  138.9762  165.3950 C.3     1  UNL1        0.0233
     25 C         141.5623  137.8075  164.4832 C.3     1  UNL1        0.0938
     26 C         140.2387  137.7187  162.2493 C.3     1  UNL1        0.0942
     27 C         138.9138  137.9848  162.9002 C.3     1  UNL1        0.0311
     28 C         138.0772  139.1460  162.4508 C.3     1  UNL1        0.0868
     29 C         138.4049  140.5325  162.9200 C.2     1  UNL1        0.2226
     30 O         139.7144  141.1611  162.5457 O.2     1  UNL1       -0.2751
     31 N         137.4231  141.2905  163.7634 N.am    1  UNL1       -0.3020
     32 H         136.5636  140.8780  164.0090 H       1  UNL1        0.1495
     33 C         137.7507  142.6771  164.2326 C.3     1  UNL1        0.1213
     34 C         137.6986  143.8265  163.2702 C.3     1  UNL1        0.1583
     35 O         137.6716  143.5671  161.7931 O.3     1  UNL1       -0.3802
     36 H         138.5109  143.1647  161.5200 H       1  UNL1        0.2105
@<TRIPOS>BOND
     1    24    25    1
     2    25    21    1
     3    21    26    1
     4    26    27    1
     5    27    28    1
     6    28    29    1
     7    29    30    2
     8    29    31   am
     9    31    33    1
    10    33    34    1
    11    34    35    1
    12    21    22   am
    13    22    23    2
    14    22     1    1
    15     1     2   ar
    16     2     3   ar
    17     3     4   ar
    18     4     5   ar
    19     5     6   ar
    20     5     7   ar
    21     7     8   ar
    22     8     9   ar
    23     9    10    1
    24     8    11    1
    25    11    12    1
    26    12    13    1
    27    13    15    1
    28    15    16    1
    29    16    17    1
    30    17    18    1
    31    18    19    1
    32    19    20    1
    33    13    14    1
    34     6     1   ar
    35    14     7    1
    36     9     4   ar
    37    20    15    1
    38    31    32    1
    39    35    36    1
@<TRIPOS>MOLECULE
*****
 36 39 0 0 0
SMALL
GASTEIGER

@<TRIPOS>ATOM
      1 C         141.7960  142.9398  160.3429 C.ar    1  UNL1        0.0537
      2 C         142.2361  141.7755  159.5059 C.ar    1  UNL1        0.0060
      3 C         142.7024  140.5115  160.1653 C.ar    1  UNL1        0.0173
      4 C         142.7285  140.4117  161.6617 C.ar    1  UNL1        0.0594
      5 C         142.2884  141.5760  162.4987 C.ar    1  UNL1        0.0130
      6 C         141.8221  142.8400  161.8393 C.ar    1  UNL1        0.0057
      7 C         142.4227  141.1870  163.9413 C.ar    1  UNL1       -0.0091
      8 C         142.9459  139.7823  163.9957 C.ar    1  UNL1        0.0331
      9 N         143.1349  139.3031  162.5869 N.ar    1  UNL1       -0.3289
     10 C         143.6413  137.9525  162.1754 C.3     1  UNL1        0.1301
     11 C         143.1826  139.1209  165.3210 C.3     1  UNL1        0.0435
     12 C         142.8961  139.8643  166.5919 C.3     1  UNL1        0.0066
     13 C         142.3729  141.2691  166.5375 C.3     1  UNL1        0.0049
     14 C         142.1362  141.9304  165.2121 C.3     1  UNL1        0.0275
     15 C         142.0865  142.0125  167.8084 C.3     1  UNL1        0.0053
     16 C         140.7406  142.6387  168.0240 C.3     1  UNL1        0.0322
     17 C         140.4541  143.3821  169.2949 C.3     1  UNL1        0.1422
     18 O         141.5136  143.4993  170.3504 O.3     1  UNL1       -0.3538
     19 C         142.8595  142.8731  170.1348 C.3     1  UNL1        0.1422
     20 C         143.1459  142.1297  168.8639 C.3     1  UNL1        0.0322
     21 N         140.2397  144.1548  158.6543 N.am    1  UNL1       -0.2761
     22 C         141.3297  144.2038  159.6835 C.2     1  UNL1        0.2490
     23 O         141.9534  145.5168  160.0534 O.2     1  UNL1       -0.2699
     24 C         140.5493  145.9971  156.8487 C.3     1  UNL1        0.0233
     25 C         139.7734  145.4188  157.9948 C.3     1  UNL1        0.0938
     26 C         139.6159  142.8417  158.2843 C.3     1  UNL1        0.0942
     27 C         138.3754  142.3762  158.9874 C.3     1  UNL1        0.0311
     28 C         138.4854  141.5516  160.2357 C.3     1  UNL1        0.0868
     29 C         138.2899  142.1925  161.5776 C.2     1  UNL1        0.2226
     30 O         138.5136  141.3961  162.8289 O.2     1  UNL1       -0.2751
     31 N         137.8706  143.6298  161.6683 N.am    1  UNL1       -0.3020
     32 H         137.7238  144.1525  160.8470 H       1  UNL1        0.1495
     33 C         137.6751  144.2709  163.0103 C.3     1  UNL1        0.1213
     34 C         138.8648  144.6349  163.8481 C.3     1  UNL1        0.1583
     35 O         139.4198  143.6478  164.8317 O.3     1  UNL1       -0.3802
     36 H         138.7692  143.4900  165.5336 H       1  UNL1        0.2105
@<TRIPOS>BOND
     1    24    25    1
     2    25    21    1
     3    21    26    1
     4    26    27    1
     5    27    28    1
     6    28    29    1
     7    29    30    2
     8    29    31   am
     9    31    33    1
    10    33    34    1
    11    34    35    1
    12    21    22   am
    13    22    23    2
    14    22     1    1
    15     1     2   ar
    16     2     3   ar
    17     3     4   ar
    18     4     5   ar
    19     5     6   ar
    20     5     7   ar
    21     7     8   ar
    22     8     9   ar
    23     9    10    1
    24     8    11    1
    25    11    12    1
    26    12    13    1
    27    13    15    1
    28    15    16    1
    29    16    17    1
    30    17    18    1
    31    18    19    1
    32    19    20    1
    33    13    14    1
    34     6     1   ar
    35    14     7    1
    36     9     4   ar
    37    20    15    1
    38    31    32    1
    39    35    36    1
@<TRIPOS>MOLECULE
*****
 36 39 0 0 0
SMALL
GASTEIGER

@<TRIPOS>ATOM
      1 C         140.6566  140.8252  159.7602 C.ar    1  UNL1        0.0537
      2 C         140.4693  142.0122  158.8625 C.ar    1  UNL1        0.0060
      3 C         140.1774  143.3601  159.4525 C.ar    1  UNL1        0.0173
      4 C         140.0727  143.5209  160.9401 C.ar    1  UNL1        0.0594
      5 C         140.2600  142.3339  161.8378 C.ar    1  UNL1        0.0130
      6 C         140.5519  140.9860  161.2478 C.ar    1  UNL1        0.0057
      7 C         140.1001  142.7955  163.2561 C.ar    1  UNL1       -0.0091
      8 C         139.8140  144.2678  163.2349 C.ar    1  UNL1        0.0331
      9 N         139.7971  144.7161  161.8035 N.ar    1  UNL1       -0.3289
     10 C         139.5483  146.1142  161.3204 C.3     1  UNL1        0.1301
     11 C         139.6059  145.0100  164.5216 C.3     1  UNL1        0.0435
     12 C         139.6838  144.2798  165.8296 C.3     1  UNL1        0.0066
     13 C         139.9699  142.8075  165.8508 C.3     1  UNL1        0.0049
     14 C         140.1780  142.0654  164.5640 C.3     1  UNL1        0.0275
     15 C         140.0478  142.0774  167.1588 C.3     1  UNL1        0.0053
     16 C         140.4644  142.8070  168.4014 C.3     1  UNL1        0.0322
     17 C         140.5423  142.0769  169.7094 C.3     1  UNL1        0.1422
     18 O         140.2036  140.6170  169.7748 O.3     1  UNL1       -0.3538
     19 C         139.7871  139.8873  168.5322 C.3     1  UNL1        0.1422
     20 C         139.7092  140.6175  167.2242 C.3     1  UNL1        0.0322
     21 N         142.3609  138.9763  159.1069 N.am    1  UNL1       -0.2761
     22 C         140.9485  139.4773  159.1702 C.2     1  UNL1        0.2490
     23 O         139.8280  138.6306  158.6435 O.2     1  UNL1       -0.2699
     24 C         142.8120  137.4778  157.0330 C.3     1  UNL1        0.0233
     25 C         142.6528  137.6284  158.5170 C.3     1  UNL1        0.0938
     26 C         143.4814  139.8231  159.6336 C.3     1  UNL1        0.0942
     27 C         144.2849  139.3561  160.8110 C.3     1  UNL1        0.0311
     28 C         143.8703  139.7383  162.2011 C.3     1  UNL1        0.0868
     29 C         144.3198  141.0446  162.7854 C.2     1  UNL1        0.2226
     30 O         145.5551  141.7150  162.2614 O.2     1  UNL1       -0.2751
     31 N         143.5341  141.6804  163.8936 N.am    1  UNL1       -0.3020
     32 H         142.7233  141.2403  164.2375 H       1  UNL1        0.1495
     33 C         143.9836  142.9867  164.4780 C.3     1  UNL1        0.1213
     34 C         143.6686  144.2721  163.7720 C.3     1  UNL1        0.1583
     35 O         144.2982  144.5722  162.4441 O.3     1  UNL1       -0.3802
     36 H         145.2556  144.6795  162.5570 H       1  UNL1        0.2105
@<TRIPOS>BOND
     1    24    25    1
     2    25    21    1
     3    21    26    1
     4    26    27    1
     5    27    28    1
     6    28    29    1
     7    29    30    2
     8    29    31   am
     9    31    33    1
    10    33    34    1
    11    34    35    1
    12    21    22   am
    13    22    23    2
    14    22     1    1
    15     1     2   ar
    16     2     3   ar
    17     3     4   ar
    18     4     5   ar
    19     5     6   ar
    20     5     7   ar
    21     7     8   ar
    22     8     9   ar
    23     9    10    1
    24     8    11    1
    25    11    12    1
    26    12    13    1
    27    13    15    1
    28    15    16    1
    29    16    17    1
    30    17    18    1
    31    18    19    1
    32    19    20    1
    33    13    14    1
    34     6     1   ar
    35    14     7    1
    36     9     4   ar
    37    20    15    1
    38    31    32    1
    39    35    36    1
