@<TRIPOS>MOLECULE
*****
 32 34 0 0 0
SMALL
GASTEIGER

@<TRIPOS>ATOM
      1 N1        138.0240  139.7140  165.5391 N.am    1  <1>        -0.2946
      2 C1        138.5949  138.9073  164.4107 C.2     1  <1>         0.2618
      3 O1        139.2753  137.6005  164.6921 O.2     1  <1>        -0.2686
      4 H1        137.5775  140.5717  165.3544 H       1  <1>         0.1501
      5 C2        138.4854  139.4075  163.0008 C.ar    1  <1>         0.1107
      6 C3        137.7865  138.7121  161.8703 C.ar    1  <1>         0.0231
      7 C4        137.9246  139.5657  160.6447 C.ar    1  <1>         0.0186
      8 C5        138.7089  140.7887  161.0176 C.ar    1  <1>         0.0569
      9 N2        139.0555  140.6909  162.4738 N.ar    1  <1>        -0.3496
     10 H2        139.5673  141.3529  162.9925 H       1  <1>         0.1661
     11 C6        139.0813  141.9123  160.0962 C.ar    1  <1>         0.0201
     12 C7        138.4766  141.9902  158.7257 C.ar    1  <1>         0.0321
     13 C8        138.8490  143.1137  157.8044 C.ar    1  <1>         0.1528
     14 F1        138.2442  143.1916  156.4339 F       1  <1>        -0.2032
     15 C9        139.8262  144.1594  158.2535 C.ar    1  <1>         0.1124
     16 Cl1       140.1986  145.2830  157.3321 Cl      1  <1>        -0.0775
     17 C10       140.4309  144.0816  159.6240 C.ar    1  <1>         0.1528
     18 F2        141.4080  145.1272  160.0731 F       1  <1>        -0.2032
     19 C11       140.0585  142.9580  160.5453 C.ar    1  <1>         0.0321
     20 C12       138.1336  139.2138  166.9490 C.3     1  <1>         0.1341
     21 C13       139.2069  139.7452  167.8521 C.ar    1  <1>         0.1071
     22 N3        139.1178  139.8798  169.3433 N.ar    1  <1>        -0.2428
     23 C14       140.4137  140.4531  169.8352 C.ar    1  <1>         0.0952
     24 C15       141.3038  140.6728  168.6480 C.ar    1  <1>         0.0538
     25 S1        140.5579  140.2353  167.4223 S.2     1  <1>        -0.0689
     26 C16       140.7590  140.7539  171.2637 C.3     1  <1>         0.1834
     27 O2        140.5597  142.1373  171.8081 O.3     1  <1>        -0.3760
     28 H3        141.1648  142.7504  171.3623 H       1  <1>         0.2110
     29 N4        137.3314  136.7450  167.0578 N.3     1  <1>        -0.3194
     30 C17       137.1697  138.1822  167.4559 C.3     1  <1>         0.0917
     31 H4        136.5947  136.1876  167.4901 H       1  <1>         0.1189
     32 H5        138.2415  136.4062  167.3695 H       1  <1>         0.1189
@<TRIPOS>BOND
     1    29    30    1
     2    20    30    1
     3    20     1    1
     4     1     2   am
     5     2     3    2
     6     2     5    1
     7     5     6   ar
     8     6     7   ar
     9     7     8   ar
    10     8    11    1
    11    11    12   ar
    12    12    13   ar
    13    13    14    1
    14    13    15   ar
    15    15    16    1
    16    15    17   ar
    17    17    18    1
    18    17    19   ar
    19     8     9   ar
    20    20    21    1
    21    21    22   ar
    22    22    23   ar
    23    23    26    1
    24    26    27    1
    25    23    24   ar
    26    24    25   ar
    27     9     5   ar
    28    25    21   ar
    29    19    11   ar
    30    29    31    1
    31    29    32    1
    32     1     4    1
    33     9    10    1
    34    27    28    1
@<TRIPOS>MOLECULE
*****
 32 34 0 0 0
SMALL
GASTEIGER

@<TRIPOS>ATOM
      1 N1        141.9874  137.7195  157.6512 N.am    1  <1>        -0.2946
      2 C1        140.6266  138.2869  157.3749 C.2     1  <1>         0.2618
      3 O1        140.0802  138.2791  155.9780 O.2     1  <1>        -0.2686
      4 H1        142.3460  137.7246  158.5680 H       1  <1>         0.1501
      5 C2        139.8122  138.8621  158.4955 C.ar    1  <1>         0.1107
      6 C3        138.6863  139.8432  158.3539 C.ar    1  <1>         0.0231
      7 C4        138.1589  140.1447  159.7254 C.ar    1  <1>         0.0186
      8 C5        138.9588  139.3499  160.7146 C.ar    1  <1>         0.0569
      9 N2        139.9805  138.5572  159.9545 N.ar    1  <1>        -0.3496
     10 H2        140.6449  137.9444  160.3447 H       1  <1>         0.1661
     11 C6        138.7700  139.3480  162.2028 C.ar    1  <1>         0.0201
     12 C7        138.9943  138.0884  162.9856 C.ar    1  <1>         0.0321
     13 C8        138.8056  138.0866  164.4737 C.ar    1  <1>         0.1528
     14 F1        139.0299  136.8269  165.2567 F       1  <1>        -0.2032
     15 C9        138.3925  139.3444  165.1788 C.ar    1  <1>         0.1124
     16 Cl1       138.2038  139.3426  166.6670 Cl      1  <1>        -0.0775
     17 C10       138.1682  140.6041  164.3959 C.ar    1  <1>         0.1528
     18 F2        137.7552  141.8619  165.1011 F       1  <1>        -0.2032
     19 C11       138.3570  140.6059  162.9079 C.ar    1  <1>         0.0321
     20 C12       142.8018  137.1443  156.5305 C.3     1  <1>         0.1341
     21 C13       142.7540  135.6720  156.2477 C.ar    1  <1>         0.1071
     22 N3        143.8207  134.6737  156.5877 N.ar    1  <1>        -0.2428
     23 C14       143.3570  133.3242  156.1252 C.ar    1  <1>         0.0952
     24 C15       142.0037  133.4884  155.4995 C.ar    1  <1>         0.0538
     25 S1        141.6310  134.9394  155.5751 S.2     1  <1>        -0.0689
     26 C16       144.1138  132.0366  156.2642 C.3     1  <1>         0.1834
     27 O2        145.6085  132.0549  156.3891 O.3     1  <1>        -0.3760
     28 H3        145.9979  132.3837  155.5638 H       1  <1>         0.2110
     29 N4        145.0098  137.5687  155.2288 N.3     1  <1>        -0.3194
     30 C17       143.6640  138.0414  155.6928 C.3     1  <1>         0.0917
     31 H4        145.4550  138.3006  154.6752 H       1  <1>         0.1189
     32 H5        144.8976  136.7311  154.6576 H       1  <1>         0.1189
@<TRIPOS>BOND
     1    29    30    1
     2    20    30    1
     3    20     1    1
     4     1     2   am
     5     2     3    2
     6     2     5    1
     7     5     6   ar
     8     6     7   ar
     9     7     8   ar
    10     8    11    1
    11    11    12   ar
    12    12    13   ar
    13    13    14    1
    14    13    15   ar
    15    15    16    1
    16    15    17   ar
    17    17    18    1
    18    17    19   ar
    19     8     9   ar
    20    20    21    1
    21    21    22   ar
    22    22    23   ar
    23    23    26    1
    24    26    27    1
    25    23    24   ar
    26    24    25   ar
    27     9     5   ar
    28    25    21   ar
    29    19    11   ar
    30    29    31    1
    31    29    32    1
    32     1     4    1
    33     9    10    1
    34    27    28    1
@<TRIPOS>MOLECULE
*****
 32 34 0 0 0
SMALL
GASTEIGER

@<TRIPOS>ATOM
      1 N1        141.5397  135.9132  156.5283 N.am    1  <1>        -0.2946
      2 C1        142.7476  136.7068  156.9297 C.2     1  <1>         0.2618
      3 O1        144.0202  136.5842  156.1452 O.2     1  <1>        -0.2686
      4 H1        140.7044  135.9937  157.0432 H       1  <1>         0.1501
      5 C2        142.6830  137.6231  158.1156 C.ar    1  <1>         0.1107
      6 C3        142.3813  139.0920  158.0795 C.ar    1  <1>         0.0231
      7 C4        142.4205  139.6080  159.4874 C.ar    1  <1>         0.0186
      8 C5        142.7464  138.4580  160.3937 C.ar    1  <1>         0.0569
      9 N2        142.9086  137.2313  159.5458 N.ar    1  <1>        -0.3496
     10 H2        143.1252  136.3276  159.8710 H       1  <1>         0.1661
     11 C6        142.8857  138.5233  161.8858 C.ar    1  <1>         0.0201
     12 C7        144.0997  139.1561  162.4988 C.ar    1  <1>         0.0321
     13 C8        144.2389  139.2213  163.9909 C.ar    1  <1>         0.1528
     14 F1        145.4529  139.8541  164.6039 F       1  <1>        -0.2032
     15 C9        143.1641  138.6538  164.8699 C.ar    1  <1>         0.1124
     16 Cl1       143.3034  138.7191  166.3621 Cl      1  <1>        -0.0775
     17 C10       141.9501  138.0210  164.2570 C.ar    1  <1>         0.1528
     18 F2        140.8754  137.4535  165.1361 F       1  <1>        -0.2032
     19 C11       141.8109  137.9558  162.7649 C.ar    1  <1>         0.0321
     20 C12       141.6044  134.9970  155.3425 C.3     1  <1>         0.1341
     21 C13       141.8437  133.5296  155.5407 C.ar    1  <1>         0.1071
     22 N3        142.6387  132.9079  156.6504 N.ar    1  <1>        -0.2428
     23 C14       142.6164  131.4202  156.4594 C.ar    1  <1>         0.0952
     24 C15       141.8076  131.1225  155.2317 C.ar    1  <1>         0.0538
     25 S1        141.3301  132.4261  154.6639 S.2     1  <1>        -0.0689
     26 C16       143.2854  130.4080  157.3414 C.3     1  <1>         0.1834
     27 O2        144.3765  130.8342  158.2784 O.3     1  <1>        -0.3760
     28 H3        145.1432  131.1352  157.7662 H       1  <1>         0.2110
     29 N4        142.4297  136.5206  153.4066 N.3     1  <1>        -0.3194
     30 C17       141.4297  135.5483  153.9584 C.3     1  <1>         0.0917
     31 H4        142.1569  136.7892  152.4612 H       1  <1>         0.1189
     32 H5        143.3513  136.0842  153.3835 H       1  <1>         0.1189
@<TRIPOS>BOND
     1    29    30    1
     2    20    30    1
     3    20     1    1
     4     1     2   am
     5     2     3    2
     6     2     5    1
     7     5     6   ar
     8     6     7   ar
     9     7     8   ar
    10     8    11    1
    11    11    12   ar
    12    12    13   ar
    13    13    14    1
    14    13    15   ar
    15    15    16    1
    16    15    17   ar
    17    17    18    1
    18    17    19   ar
    19     8     9   ar
    20    20    21    1
    21    21    22   ar
    22    22    23   ar
    23    23    26    1
    24    26    27    1
    25    23    24   ar
    26    24    25   ar
    27     9     5   ar
    28    25    21   ar
    29    19    11   ar
    30    29    31    1
    31    29    32    1
    32     1     4    1
    33     9    10    1
    34    27    28    1
@<TRIPOS>MOLECULE
*****
 32 34 0 0 0
SMALL
GASTEIGER

@<TRIPOS>ATOM
      1 N1        139.6729  139.8543  162.4496 N.am    1  <1>        -0.2946
      2 C1        139.1618  138.9164  163.5028 C.2     1  <1>         0.2618
      3 O1        138.5716  137.5952  163.1080 O.2     1  <1>        -0.2686
      4 H1        140.0602  140.7215  162.7088 H       1  <1>         0.1501
      5 C2        139.2408  139.2998  164.9508 C.ar    1  <1>         0.1107
      6 C3        138.3309  138.8176  166.0415 C.ar    1  <1>         0.0231
      7 C4        138.7714  139.4525  167.3272 C.ar    1  <1>         0.0186
      8 C5        139.9535  140.3271  167.0311 C.ar    1  <1>         0.0569
      9 N2        140.2436  140.2327  165.5624 N.ar    1  <1>        -0.3496
     10 H2        140.9655  140.7009  165.0839 H       1  <1>         0.1661
     11 C6        140.7124  141.1514  168.0285 C.ar    1  <1>         0.0201
     12 C7        140.1908  142.4954  168.4426 C.ar    1  <1>         0.0321
     13 C8        140.9496  143.3196  169.4400 C.ar    1  <1>         0.1528
     14 F1        140.4280  144.6636  169.8541 F       1  <1>        -0.2032
     15 C9        142.2301  142.7997  170.0233 C.ar    1  <1>         0.1124
     16 Cl1       142.9889  143.6240  171.0207 Cl      1  <1>        -0.0775
     17 C10       142.7517  141.4557  169.6092 C.ar    1  <1>         0.1528
     18 F2        144.0321  140.9359  170.1925 F       1  <1>        -0.2032
     19 C11       141.9928  140.6315  168.6118 C.ar    1  <1>         0.0321
     20 C12       139.5938  139.4709  161.0016 C.3     1  <1>         0.1341
     21 C13       140.7770  138.8432  160.3263 C.ar    1  <1>         0.1071
     22 N3        140.8834  138.5047  158.8689 N.ar    1  <1>        -0.2428
     23 C14       142.2337  137.8961  158.6318 C.ar    1  <1>         0.0952
     24 C15       142.9619  137.8585  159.9426 C.ar    1  <1>         0.0538
     25 S1        142.0616  138.4438  160.9899 S.2     1  <1>        -0.0689
     26 C16       142.7629  137.4103  157.3150 C.3     1  <1>         0.1834
     27 O2        143.0146  135.9471  157.1015 O.3     1  <1>        -0.3760
     28 H3        143.7334  135.6544  157.6833 H       1  <1>         0.2110
     29 N4        136.9992  139.4567  160.8676 N.3     1  <1>        -0.3194
     30 C17       138.3316  139.7153  160.2289 C.3     1  <1>         0.0917
     31 H4        136.2560  139.6746  160.2040 H       1  <1>         0.1189
     32 H5        136.8992  140.0444  161.6953 H       1  <1>         0.1189
@<TRIPOS>BOND
     1    29    30    1
     2    20    30    1
     3    20     1    1
     4     1     2   am
     5     2     3    2
     6     2     5    1
     7     5     6   ar
     8     6     7   ar
     9     7     8   ar
    10     8    11    1
    11    11    12   ar
    12    12    13   ar
    13    13    14    1
    14    13    15   ar
    15    15    16    1
    16    15    17   ar
    17    17    18    1
    18    17    19   ar
    19     8     9   ar
    20    20    21    1
    21    21    22   ar
    22    22    23   ar
    23    23    26    1
    24    26    27    1
    25    23    24   ar
    26    24    25   ar
    27     9     5   ar
    28    25    21   ar
    29    19    11   ar
    30    29    31    1
    31    29    32    1
    32     1     4    1
    33     9    10    1
    34    27    28    1
@<TRIPOS>MOLECULE
*****
 32 34 0 0 0
SMALL
GASTEIGER

@<TRIPOS>ATOM
      1 N1        141.5820  137.6735  157.4902 N.am    1  <1>        -0.2946
      2 C1        142.0650  138.1856  158.8148 C.2     1  <1>         0.2618
      3 O1        143.5257  138.1336  159.1516 O.2     1  <1>        -0.2686
      4 H1        140.6232  137.7077  157.2692 H       1  <1>         0.1501
      5 C2        141.0872  138.7498  159.8026 C.ar    1  <1>         0.1107
      6 C3        139.9718  139.7038  159.4926 C.ar    1  <1>         0.0231
      7 C4        139.2484  140.0026  160.7722 C.ar    1  <1>         0.0186
      8 C5        139.9167  139.2334  161.8730 C.ar    1  <1>         0.0569
      9 N2        141.0531  138.4591  161.2737 N.ar    1  <1>        -0.3496
     10 H2        141.6685  137.8645  161.7605 H       1  <1>         0.1661
     11 C6        139.5184  139.2376  163.3192 C.ar    1  <1>         0.0201
     12 C7        139.6467  140.4938  164.1288 C.ar    1  <1>         0.0321
     13 C8        139.2484  140.4980  165.5749 C.ar    1  <1>         0.1528
     14 F1        139.3767  141.7543  166.3845 F       1  <1>        -0.2032
     15 C9        138.7220  139.2460  166.2115 C.ar    1  <1>         0.1124
     16 Cl1       138.3237  139.2502  167.6577 Cl      1  <1>        -0.0775
     17 C10       138.5937  137.9898  165.4019 C.ar    1  <1>         0.1528
     18 F2        138.0672  136.7378  166.0385 F       1  <1>        -0.2032
     19 C11       138.9919  137.9856  163.9558 C.ar    1  <1>         0.0321
     20 C12       142.5597  137.1094  156.5025 C.3     1  <1>         0.1341
     21 C13       142.6211  135.6288  156.2700 C.ar    1  <1>         0.1071
     22 N3        143.6677  134.6954  156.8024 N.ar    1  <1>        -0.2428
     23 C14       143.3401  133.3114  156.3258 C.ar    1  <1>         0.0952
     24 C15       142.0911  133.3894  155.4988 C.ar    1  <1>         0.0538
     25 S1        141.6468  134.8216  155.4643 S.2     1  <1>        -0.0689
     26 C16       144.1239  132.0677  156.6238 C.3     1  <1>         0.1834
     27 O2        145.6025  132.0349  156.3732 O.3     1  <1>        -0.3760
     28 H3        145.7707  132.1084  155.4207 H       1  <1>         0.2110
     29 N4        144.8307  137.5454  155.3183 N.3     1  <1>        -0.3194
     30 C17       143.4760  138.0258  155.7471 C.3     1  <1>         0.0917
     31 H4        145.3147  138.2928  154.8206 H       1  <1>         0.1189
     32 H5        144.7263  136.7390  154.7025 H       1  <1>         0.1189
@<TRIPOS>BOND
     1    29    30    1
     2    20    30    1
     3    20     1    1
     4     1     2   am
     5     2     3    2
     6     2     5    1
     7     5     6   ar
     8     6     7   ar
     9     7     8   ar
    10     8    11    1
    11    11    12   ar
    12    12    13   ar
    13    13    14    1
    14    13    15   ar
    15    15    16    1
    16    15    17   ar
    17    17    18    1
    18    17    19   ar
    19     8     9   ar
    20    20    21    1
    21    21    22   ar
    22    22    23   ar
    23    23    26    1
    24    26    27    1
    25    23    24   ar
    26    24    25   ar
    27     9     5   ar
    28    25    21   ar
    29    19    11   ar
    30    29    31    1
    31    29    32    1
    32     1     4    1
    33     9    10    1
    34    27    28    1
@<TRIPOS>MOLECULE
*****
 32 34 0 0 0
SMALL
GASTEIGER

@<TRIPOS>ATOM
      1 N1        139.8105  144.0271  159.3490 N.am    1  <1>        -0.2946
      2 C1        140.5206  144.4379  160.6048 C.2     1  <1>         0.2618
      3 O1        141.8469  145.1339  160.5231 O.2     1  <1>        -0.2686
      4 H1        138.9401  143.5703  159.4026 H       1  <1>         0.1501
      5 C2        139.9044  144.1527  161.9423 C.ar    1  <1>         0.1107
      6 C3        138.6564  144.7794  162.4898 C.ar    1  <1>         0.0231
      7 C4        138.4087  144.2048  163.8531 C.ar    1  <1>         0.0186
      8 C5        139.5037  143.2229  164.1482 C.ar    1  <1>         0.0569
      9 N2        140.4281  143.1908  162.9673 N.ar    1  <1>        -0.3496
     10 H2        141.2365  142.6357  162.8802 H       1  <1>         0.1661
     11 C6        139.6488  142.4151  165.4037 C.ar    1  <1>         0.0201
     12 C7        140.3592  142.9949  166.5907 C.ar    1  <1>         0.0321
     13 C8        140.5043  142.1870  167.8462 C.ar    1  <1>         0.1528
     14 F1        141.2147  142.7669  169.0333 F       1  <1>        -0.2032
     15 C9        139.9389  140.7993  167.9146 C.ar    1  <1>         0.1124
     16 Cl1       140.0841  139.9914  169.1702 Cl      1  <1>        -0.0775
     17 C10       139.2285  140.2195  166.7276 C.ar    1  <1>         0.1528
     18 F2        138.6632  138.8318  166.7961 F       1  <1>        -0.2032
     19 C11       139.0835  141.0274  165.4722 C.ar    1  <1>         0.0321
     20 C12       140.4267  144.3123  158.0115 C.3     1  <1>         0.1341
     21 C13       139.7472  145.2490  157.0571 C.ar    1  <1>         0.1071
     22 N3        139.8139  146.7470  157.0941 N.ar    1  <1>        -0.2428
     23 C14       138.9896  147.2759  155.9579 C.ar    1  <1>         0.0952
     24 C15       138.4134  146.1047  155.2188 C.ar    1  <1>         0.0538
     25 S1        138.8816  144.8520  155.8981 S.2     1  <1>        -0.0689
     26 C16       138.7785  148.7221  155.6203 C.3     1  <1>         0.1834
     27 O2        137.8571  149.5606  156.4557 O.3     1  <1>        -0.3760
     28 H3        136.9479  149.2368  156.3584 H       1  <1>         0.2110
     29 N4        143.0184  144.3845  157.8443 N.3     1  <1>        -0.3194
     30 C17       141.7224  143.6608  157.6284 C.3     1  <1>         0.0917
     31 H4        143.7916  143.7984  157.5297 H       1  <1>         0.1189
     32 H5        143.1308  144.5918  158.8367 H       1  <1>         0.1189
@<TRIPOS>BOND
     1    29    30    1
     2    20    30    1
     3    20     1    1
     4     1     2   am
     5     2     3    2
     6     2     5    1
     7     5     6   ar
     8     6     7   ar
     9     7     8   ar
    10     8    11    1
    11    11    12   ar
    12    12    13   ar
    13    13    14    1
    14    13    15   ar
    15    15    16    1
    16    15    17   ar
    17    17    18    1
    18    17    19   ar
    19     8     9   ar
    20    20    21    1
    21    21    22   ar
    22    22    23   ar
    23    23    26    1
    24    26    27    1
    25    23    24   ar
    26    24    25   ar
    27     9     5   ar
    28    25    21   ar
    29    19    11   ar
    30    29    31    1
    31    29    32    1
    32     1     4    1
    33     9    10    1
    34    27    28    1
@<TRIPOS>MOLECULE
*****
 32 34 0 0 0
SMALL
GASTEIGER

@<TRIPOS>ATOM
      1 N1        141.6474  138.1647  158.2534 N.am    1  <1>        -0.2946
      2 C1        142.0776  138.3860  159.6733 C.2     1  <1>         0.2618
      3 O1        143.5371  138.4486  160.0136 O.2     1  <1>        -0.2686
      4 H1        140.6894  138.1235  158.0300 H       1  <1>         0.1501
      5 C2        141.0483  138.5447  160.7527 C.ar    1  <1>         0.1107
      6 C3        139.5640  138.4101  160.5825 C.ar    1  <1>         0.0231
      7 C4        138.9209  138.6481  161.9165 C.ar    1  <1>         0.0186
      8 C5        140.0076  138.9298  162.9113 C.ar    1  <1>         0.0569
      9 N2        141.3224  138.8659  162.1921 N.ar    1  <1>        -0.3496
     10 H2        142.2095  139.0096  162.5941 H       1  <1>         0.1661
     11 C6        139.8137  139.2238  164.3694 C.ar    1  <1>         0.0201
     12 C7        138.6230  138.6700  165.0943 C.ar    1  <1>         0.0321
     13 C8        138.4291  138.9641  166.5523 C.ar    1  <1>         0.1528
     14 F1        137.2383  138.4103  167.2773 F       1  <1>        -0.2032
     15 C9        139.4259  139.8119  167.2855 C.ar    1  <1>         0.1124
     16 Cl1       139.2319  140.1059  168.7436 Cl      1  <1>        -0.0775
     17 C10       140.6166  140.3657  166.5606 C.ar    1  <1>         0.1528
     18 F2        141.6134  141.2135  167.2938 F       1  <1>        -0.2032
     19 C11       140.8105  140.0717  165.1026 C.ar    1  <1>         0.0321
     20 C12       142.6767  138.0059  157.1739 C.3     1  <1>         0.1341
     21 C13       143.0578  136.6359  156.6967 C.ar    1  <1>         0.1071
     22 N3        143.2122  135.4148  157.5541 N.ar    1  <1>        -0.2428
     23 C14       143.6013  134.2707  156.6654 C.ar    1  <1>         0.0952
     24 C15       143.6874  134.7847  155.2589 C.ar    1  <1>         0.0538
     25 S1        143.3515  136.2465  155.2782 S.2     1  <1>        -0.0689
     26 C16       143.8590  132.8602  157.1061 C.3     1  <1>         0.1834
     27 O2        142.7098  131.9620  157.4560 O.3     1  <1>        -0.3760
     28 H3        142.2642  132.3007  158.2482 H       1  <1>         0.2110
     29 N4        144.3830  139.9586  157.3337 N.3     1  <1>        -0.3194
     30 C17       143.3249  139.2172  156.5717 C.3     1  <1>         0.0917
     31 H4        144.7110  140.7489  156.7786 H       1  <1>         0.1189
     32 H5        145.1641  139.3320  157.5279 H       1  <1>         0.1189
@<TRIPOS>BOND
     1    29    30    1
     2    20    30    1
     3    20     1    1
     4     1     2   am
     5     2     3    2
     6     2     5    1
     7     5     6   ar
     8     6     7   ar
     9     7     8   ar
    10     8    11    1
    11    11    12   ar
    12    12    13   ar
    13    13    14    1
    14    13    15   ar
    15    15    16    1
    16    15    17   ar
    17    17    18    1
    18    17    19   ar
    19     8     9   ar
    20    20    21    1
    21    21    22   ar
    22    22    23   ar
    23    23    26    1
    24    26    27    1
    25    23    24   ar
    26    24    25   ar
    27     9     5   ar
    28    25    21   ar
    29    19    11   ar
    30    29    31    1
    31    29    32    1
    32     1     4    1
    33     9    10    1
    34    27    28    1
@<TRIPOS>MOLECULE
*****
 32 34 0 0 0
SMALL
GASTEIGER

@<TRIPOS>ATOM
      1 N1        140.0300  143.1200  161.6253 N.am    1  <1>        -0.2946
      2 C1        138.9267  143.1080  162.6416 C.2     1  <1>         0.2618
      3 O1        137.7178  143.9742  162.4464 O.2     1  <1>        -0.2686
      4 H1        140.8234  142.5514  161.7534 H       1  <1>         0.1501
      5 C2        139.0325  142.2298  163.8530 C.ar    1  <1>         0.1107
      6 C3        138.3079  140.9341  164.0687 C.ar    1  <1>         0.0231
      7 C4        138.7090  140.3966  165.4104 C.ar    1  <1>         0.0186
      8 C5        139.6814  141.3600  166.0239 C.ar    1  <1>         0.0569
      9 N2        139.8813  142.4929  165.0614 N.ar    1  <1>        -0.3496
     10 H2        140.4668  143.2724  165.1986 H       1  <1>         0.1661
     11 C6        140.3385  141.2158  167.3647 C.ar    1  <1>         0.0201
     12 C7        139.6392  140.4772  168.4671 C.ar    1  <1>         0.0321
     13 C8        140.2963  140.3330  169.8077 C.ar    1  <1>         0.1528
     14 F1        139.5970  139.5944  170.9102 F       1  <1>        -0.2032
     15 C9        141.6527  140.9274  170.0459 C.ar    1  <1>         0.1124
     16 Cl1       142.3099  140.7832  171.3867 Cl      1  <1>        -0.0775
     17 C10       142.3521  141.6660  168.9435 C.ar    1  <1>         0.1528
     18 F2        143.7085  142.2604  169.1817 F       1  <1>        -0.2032
     19 C11       141.6949  141.8102  167.6029 C.ar    1  <1>         0.0321
     20 C12       139.9242  143.9982  160.4139 C.3     1  <1>         0.1341
     21 C13       139.4506  143.4250  159.1111 C.ar    1  <1>         0.1071
     22 N3        138.1563  142.7014  158.8849 N.ar    1  <1>        -0.2428
     23 C14       138.0939  142.3041  157.4398 C.ar    1  <1>         0.0952
     24 C15       139.3495  142.7821  156.7729 C.ar    1  <1>         0.0538
     25 S1        140.1880  143.4749  157.8059 S.2     1  <1>        -0.0689
     26 C16       136.9726  141.5594  156.7778 C.3     1  <1>         0.1834
     27 O2        135.9675  142.3007  155.9470 O.3     1  <1>        -0.3760
     28 H3        135.4539  142.8957  156.5154 H       1  <1>         0.2110
     29 N4        139.4002  146.4044  161.2416 N.3     1  <1>        -0.3194
     30 C17       140.2922  145.4495  160.5052 C.3     1  <1>         0.0917
     31 H4        139.8006  147.3418  161.2036 H       1  <1>         0.1189
     32 H5        139.3163  146.1098  162.2145 H       1  <1>         0.1189
@<TRIPOS>BOND
     1    29    30    1
     2    20    30    1
     3    20     1    1
     4     1     2   am
     5     2     3    2
     6     2     5    1
     7     5     6   ar
     8     6     7   ar
     9     7     8   ar
    10     8    11    1
    11    11    12   ar
    12    12    13   ar
    13    13    14    1
    14    13    15   ar
    15    15    16    1
    16    15    17   ar
    17    17    18    1
    18    17    19   ar
    19     8     9   ar
    20    20    21    1
    21    21    22   ar
    22    22    23   ar
    23    23    26    1
    24    26    27    1
    25    23    24   ar
    26    24    25   ar
    27     9     5   ar
    28    25    21   ar
    29    19    11   ar
    30    29    31    1
    31    29    32    1
    32     1     4    1
    33     9    10    1
    34    27    28    1
@<TRIPOS>MOLECULE
*****
 32 34 0 0 0
SMALL
GASTEIGER

@<TRIPOS>ATOM
      1 N1        137.9450  140.0067  157.7880 N.am    1  <1>        -0.2946
      2 C1        138.3219  140.7734  159.0209 C.2     1  <1>         0.2618
      3 O1        138.2753  142.2726  159.0154 O.2     1  <1>        -0.2686
      4 H1        137.9756  139.0227  157.7916 H       1  <1>         0.1501
      5 C2        138.7455  140.0408  160.2594 C.ar    1  <1>         0.1107
      6 C3        139.2822  138.6411  160.3158 C.ar    1  <1>         0.0231
      7 C4        139.5751  138.3145  161.7502 C.ar    1  <1>         0.0186
      8 C5        139.2196  139.5122  162.5803 C.ar    1  <1>         0.0569
      9 N2        138.7068  140.5791  161.6589 N.ar    1  <1>        -0.3496
     10 H2        138.3990  141.4753  161.9259 H       1  <1>         0.1661
     11 C6        139.3533  139.6235  164.0702 C.ar    1  <1>         0.0201
     12 C7        138.2640  139.1052  164.9618 C.ar    1  <1>         0.0321
     13 C8        138.3978  139.2165  166.4516 C.ar    1  <1>         0.1528
     14 F1        137.3085  138.6982  167.3433 F       1  <1>        -0.2032
     15 C9        139.6207  139.8462  167.0499 C.ar    1  <1>         0.1124
     16 Cl1       139.7544  139.9575  168.5399 Cl      1  <1>        -0.0775
     17 C10       140.7099  140.3645  166.1584 C.ar    1  <1>         0.1528
     18 F2        141.9328  140.9942  166.7567 F       1  <1>        -0.2032
     19 C11       140.5762  140.2532  164.6685 C.ar    1  <1>         0.0321
     20 C12       137.5214  140.7393  156.5495 C.3     1  <1>         0.1341
     21 C13       136.0714  140.7936  156.1692 C.ar    1  <1>         0.1071
     22 N3        134.9376  140.1667  156.9251 N.ar    1  <1>        -0.2428
     23 C14       133.6661  140.4699  156.1892 C.ar    1  <1>         0.0952
     24 C15       134.0142  141.2842  154.9785 C.ar    1  <1>         0.0538
     25 S1        135.5007  141.4842  154.9661 S.2     1  <1>        -0.0689
     26 C16       132.2885  140.0352  156.5932 C.3     1  <1>         0.1834
     27 O2        131.9170  139.9738  158.0451 O.3     1  <1>        -0.3760
     28 H3        132.4399  139.2845  158.4838 H       1  <1>         0.2110
     29 N4        138.9918  142.8135  156.0148 N.3     1  <1>        -0.3194
     30 C17       138.5478  141.4177  155.6914 C.3     1  <1>         0.0917
     31 H4        139.6879  143.1154  155.3331 H       1  <1>         0.1189
     32 H5        139.4004  142.8323  156.9492 H       1  <1>         0.1189
@<TRIPOS>BOND
     1    29    30    1
     2    20    30    1
     3    20     1    1
     4     1     2   am
     5     2     3    2
     6     2     5    1
     7     5     6   ar
     8     6     7   ar
     9     7     8   ar
    10     8    11    1
    11    11    12   ar
    12    12    13   ar
    13    13    14    1
    14    13    15   ar
    15    15    16    1
    16    15    17   ar
    17    17    18    1
    18    17    19   ar
    19     8     9   ar
    20    20    21    1
    21    21    22   ar
    22    22    23   ar
    23    23    26    1
    24    26    27    1
    25    23    24   ar
    26    24    25   ar
    27     9     5   ar
    28    25    21   ar
    29    19    11   ar
    30    29    31    1
    31    29    32    1
    32     1     4    1
    33     9    10    1
    34    27    28    1
