@<TRIPOS>MOLECULE
*****
 36 40 0 0 0
SMALL
GASTEIGER

@<TRIPOS>ATOM
      1 C         139.2396  138.2818  165.1336 C.3     1  UNL1        0.0545
      2 C         138.3255  138.6814  166.2537 C.3     1  UNL1        0.0163
      3 C         139.1377  139.4261  167.2715 C.3     1  UNL1        0.0120
      4 C         139.0748  140.1334  168.5927 C.3     1  UNL1        0.0301
      5 C         140.4519  140.6311  168.9182 C.3     1  UNL1        0.1158
      6 C         141.3659  140.2314  167.7980 C.3     1  UNL1        0.0382
      7 C         140.5538  139.4867  166.7803 C.3     1  UNL1        0.0728
      8 C         140.6167  138.7795  165.4590 C.3     1  UNL1        0.0244
      9 C         141.9697  139.5473  166.2891 C.2     1  UNL1        0.2251
     10 O         142.9765  138.5484  166.7776 O.2     1  UNL1       -0.2749
     11 N         142.3790  140.6069  165.3093 N.am    1  UNL1       -0.2750
     12 C         143.7950  140.6675  164.8181 C.3     1  UNL1        0.1000
     13 C         144.2042  141.7270  163.8384 C.3     1  UNL1        0.0670
     14 C         143.1975  142.7259  163.3498 C.ar    1  UNL1        0.0583
     15 N         143.6068  143.7854  162.3701 N.ar    1  UNL1       -0.2484
     16 C         142.6001  144.7844  161.8815 C.ar    1  UNL1        0.1023
     17 C         141.1841  144.7237  162.3728 C.ar    1  UNL1        0.0902
     18 C         140.7748  143.6642  163.3525 C.ar    1  UNL1        0.0040
     19 C         141.7816  142.6653  163.8410 C.ar    1  UNL1        0.0113
     20 C         141.3723  141.6058  164.8208 C.3     1  UNL1        0.1213
     21 C         140.1773  145.7226  161.8842 C.3     1  UNL1        0.4200
     22 F         139.1706  146.7216  161.3957 F       1  UNL1       -0.1658
     23 F         140.8940  145.8015  160.5688 F       1  UNL1       -0.1658
     24 F         139.4607  145.6437  163.1996 F       1  UNL1       -0.1658
     25 N         138.8457  137.5184  163.9038 N.3     1  UNL1       -0.2975
     26 H         139.4559  136.7025  163.8556 H       1  UNL1        0.1232
     27 C         140.1352  138.0592  161.7142 C.3     1  UNL1        0.1591
     28 C         140.1916  138.7221  160.3698 C.3     1  UNL1        0.1729
     29 O         139.0149  139.5071  159.8707 O.3     1  UNL1       -0.3511
     30 C         137.7817  139.6292  160.7159 C.3     1  UNL1        0.1437
     31 C         137.7253  138.9663  162.0603 C.3     1  UNL1        0.0503
     32 C         138.9021  138.1813  162.5594 C.3     1  UNL1        0.0865
     33 C         142.6122  137.9679  162.4926 C.3     1  UNL1        0.1742
     34 O         141.3119  137.2742  162.2133 O.3     1  UNL1       -0.3496
     35 O         140.8458  141.3945  170.1479 O.3     1  UNL1       -0.3536
     36 C         140.0326  142.5745  170.5907 C.3     1  UNL1        0.1740
@<TRIPOS>BOND
     1    33    34    1
     2    34    27    1
     3    27    28    1
     4    28    29    1
     5    29    30    1
     6    30    31    1
     7    31    32    1
     8    32    25    1
     9     1    25    1
    10     1     2    1
    11     3     2    1
    12     3     4    1
    13     4     5    1
    14     5    35    1
    15    35    36    1
    16     5     6    1
    17     6     7    1
    18     7     9    1
    19     9    10    2
    20     9    11   am
    21    11    12    1
    22    12    13    1
    23    13    14    1
    24    14    15   ar
    25    15    16   ar
    26    16    17   ar
    27    17    21    1
    28    21    22    1
    29    21    23    1
    30    21    24    1
    31    17    18   ar
    32    18    19   ar
    33    19    20    1
    34     7     8    1
    35    32    27    1
    36     8     1    1
    37     7     3    1
    38    20    11    1
    39    19    14   ar
    40    25    26    1
@<TRIPOS>MOLECULE
*****
 36 40 0 0 0
SMALL
GASTEIGER

@<TRIPOS>ATOM
      1 C         139.2333  138.9011  165.9515 C.3     1  UNL1        0.0545
      2 C         138.5653  139.3895  167.2026 C.3     1  UNL1        0.0163
      3 C         139.6163  140.0007  168.0810 C.3     1  UNL1        0.0120
      4 C         139.8530  140.6803  169.3971 C.3     1  UNL1        0.0301
      5 C         141.3170  140.9898  169.5023 C.3     1  UNL1        0.1158
      6 C         141.9851  140.5015  168.2512 C.3     1  UNL1        0.0382
      7 C         140.9340  139.8902  167.3728 C.3     1  UNL1        0.0728
      8 C         140.6973  139.2106  166.0567 C.3     1  UNL1        0.0244
      9 C         142.2517  139.7796  166.6646 C.2     1  UNL1        0.2251
     10 O         143.2493  138.7450  167.0937 O.2     1  UNL1       -0.2749
     11 N         142.5717  140.7038  165.5272 N.am    1  UNL1       -0.2750
     12 C         143.8893  140.5932  164.8190 C.3     1  UNL1        0.1000
     13 C         144.2093  141.5173  163.6817 C.3     1  UNL1        0.0670
     14 C         143.2116  142.5520  163.2525 C.ar    1  UNL1        0.0583
     15 N         143.5317  143.4761  162.1151 N.ar    1  UNL1       -0.2484
     16 C         142.5340  144.5108  161.6859 C.ar    1  UNL1        0.1023
     17 C         141.2163  144.6213  162.3942 C.ar    1  UNL1        0.0902
     18 C         140.8964  143.6972  163.5315 C.ar    1  UNL1        0.0040
     19 C         141.8940  142.6625  163.9607 C.ar    1  UNL1        0.0113
     20 C         141.5740  141.7384  165.0980 C.3     1  UNL1        0.1213
     21 C         140.2187  145.6560  161.9651 C.3     1  UNL1        0.4200
     22 F         139.2210  146.6906  161.5359 F       1  UNL1       -0.1658
     23 F         140.9089  145.7711  160.6383 F       1  UNL1       -0.1658
     24 F         139.5285  145.5408  163.2919 F       1  UNL1       -0.1658
     25 N         138.5563  138.2225  164.7977 N.3     1  UNL1       -0.2975
     26 H         138.7962  137.2328  164.8562 H       1  UNL1        0.1232
     27 C         138.3991  140.0046  162.9138 C.3     1  UNL1        0.1591
     28 C         138.6952  140.4396  161.5091 C.3     1  UNL1        0.1729
     29 O         139.4446  139.5275  160.5837 O.3     1  UNL1       -0.3511
     30 C         139.8979  138.1803  161.0629 C.3     1  UNL1        0.1437
     31 C         139.6018  137.7453  162.4676 C.3     1  UNL1        0.0503
     32 C         138.8524  138.6575  163.3930 C.3     1  UNL1        0.0865
     33 C         137.4414  142.3552  163.4684 C.3     1  UNL1        0.1742
     34 O         137.6498  140.9167  163.8392 O.3     1  UNL1       -0.3496
     35 O         141.9940  141.6684  170.6561 O.3     1  UNL1       -0.3536
     36 C         142.6888  142.9819  170.4509 C.3     1  UNL1        0.1740
@<TRIPOS>BOND
     1    33    34    1
     2    34    27    1
     3    27    28    1
     4    28    29    1
     5    29    30    1
     6    30    31    1
     7    31    32    1
     8    32    25    1
     9     1    25    1
    10     1     2    1
    11     3     2    1
    12     3     4    1
    13     4     5    1
    14     5    35    1
    15    35    36    1
    16     5     6    1
    17     6     7    1
    18     7     9    1
    19     9    10    2
    20     9    11   am
    21    11    12    1
    22    12    13    1
    23    13    14    1
    24    14    15   ar
    25    15    16   ar
    26    16    17   ar
    27    17    21    1
    28    21    22    1
    29    21    23    1
    30    21    24    1
    31    17    18   ar
    32    18    19   ar
    33    19    20    1
    34     7     8    1
    35    32    27    1
    36     8     1    1
    37     7     3    1
    38    20    11    1
    39    19    14   ar
    40    25    26    1
@<TRIPOS>MOLECULE
*****
 36 40 0 0 0
SMALL
GASTEIGER

@<TRIPOS>ATOM
      1 C         140.0943  137.9395  163.7671 C.3     1  UNL1        0.0545
      2 C         138.7683  137.8919  164.4667 C.3     1  UNL1        0.0163
      3 C         138.9270  138.5484  165.8060 C.3     1  UNL1        0.0120
      4 C         138.2056  138.9247  167.0661 C.3     1  UNL1        0.0301
      5 C         139.1838  139.6106  167.9731 C.3     1  UNL1        0.1158
      6 C         140.5098  139.6582  167.2736 C.3     1  UNL1        0.0382
      7 C         140.3512  139.0017  165.9342 C.3     1  UNL1        0.0728
      8 C         141.0726  138.6254  164.6741 C.3     1  UNL1        0.0244
      9 C         141.7752  139.4550  166.0624 C.2     1  UNL1        0.2251
     10 O         142.7648  138.6154  166.8147 O.2     1  UNL1       -0.2749
     11 N         142.2099  140.7480  165.4383 N.am    1  UNL1       -0.2750
     12 C         143.6339  141.2013  165.5664 C.3     1  UNL1        0.1000
     13 C         144.0685  142.4941  164.9423 C.3     1  UNL1        0.0670
     14 C         143.0789  143.3337  164.1900 C.ar    1  UNL1        0.0583
     15 N         143.5136  144.6267  163.5659 N.ar    1  UNL1       -0.2484
     16 C         142.5240  145.4663  162.8136 C.ar    1  UNL1        0.1023
     17 C         141.0999  145.0129  162.6854 C.ar    1  UNL1        0.0902
     18 C         140.6653  143.7200  163.3096 C.ar    1  UNL1        0.0040
     19 C         141.6549  142.8804  164.0619 C.ar    1  UNL1        0.0113
     20 C         141.2203  141.5875  164.6860 C.3     1  UNL1        0.1213
     21 C         140.1104  145.8525  161.9332 C.3     1  UNL1        0.4200
     22 F         139.1208  146.6921  161.1809 F       1  UNL1       -0.1658
     23 F         139.1667  145.7832  163.0971 F       1  UNL1       -0.1658
     24 F         141.0540  145.9217  160.7692 F       1  UNL1       -0.1658
     25 N         140.3902  137.3965  162.4005 N.3     1  UNL1       -0.2975
     26 H         140.8813  136.5126  162.5348 H       1  UNL1        0.1232
     27 C         140.6487  139.4698  160.8563 C.3     1  UNL1        0.1591
     28 C         141.4645  140.2759  159.8895 C.3     1  UNL1        0.1729
     29 O         142.8377  139.8147  159.5001 O.3     1  UNL1       -0.3511
     30 C         143.3951  138.5473  160.0774 C.3     1  UNL1        0.1437
     31 C         142.5793  137.7413  161.0442 C.3     1  UNL1        0.0503
     32 C         141.2060  138.2025  161.4337 C.3     1  UNL1        0.0865
     33 C         138.0888  139.5361  160.4177 C.3     1  UNL1        0.1742
     34 O         139.2756  139.9310  161.2458 O.3     1  UNL1       -0.3496
     35 O         138.8879  140.1536  169.3398 O.3     1  UNL1       -0.3536
     36 C         139.9314  140.0872  170.4153 C.3     1  UNL1        0.1740
@<TRIPOS>BOND
     1    33    34    1
     2    34    27    1
     3    27    28    1
     4    28    29    1
     5    29    30    1
     6    30    31    1
     7    31    32    1
     8    32    25    1
     9     1    25    1
    10     1     2    1
    11     3     2    1
    12     3     4    1
    13     4     5    1
    14     5    35    1
    15    35    36    1
    16     5     6    1
    17     6     7    1
    18     7     9    1
    19     9    10    2
    20     9    11   am
    21    11    12    1
    22    12    13    1
    23    13    14    1
    24    14    15   ar
    25    15    16   ar
    26    16    17   ar
    27    17    21    1
    28    21    22    1
    29    21    23    1
    30    21    24    1
    31    17    18   ar
    32    18    19   ar
    33    19    20    1
    34     7     8    1
    35    32    27    1
    36     8     1    1
    37     7     3    1
    38    20    11    1
    39    19    14   ar
    40    25    26    1
@<TRIPOS>MOLECULE
*****
 36 40 0 0 0
SMALL
GASTEIGER

@<TRIPOS>ATOM
      1 C         144.0878  139.3996  164.9075 C.3     1  UNL1        0.0545
      2 C         143.6400  138.5592  166.0665 C.3     1  UNL1        0.0163
      3 C         142.9994  139.4652  167.0758 C.3     1  UNL1        0.0120
      4 C         142.3267  139.5059  168.4159 C.3     1  UNL1        0.0301
      5 C         141.9630  140.9313  168.7090 C.3     1  UNL1        0.1158
      6 C         142.4108  141.7716  167.5500 C.3     1  UNL1        0.0382
      7 C         143.0514  140.8656  166.5407 C.3     1  UNL1        0.0728
      8 C         143.7240  140.8250  165.2006 C.3     1  UNL1        0.0244
      9 C         143.1033  142.2659  166.0055 C.2     1  UNL1        0.2251
     10 O         144.0443  143.2654  166.6100 O.2     1  UNL1       -0.2749
     11 N         142.2142  142.6667  164.8658 N.am    1  UNL1       -0.2750
     12 C         142.2662  144.0670  164.3306 C.3     1  UNL1        0.1000
     13 C         141.3772  144.4678  163.1909 C.3     1  UNL1        0.0670
     14 C         140.4361  143.4683  162.5864 C.ar    1  UNL1        0.0583
     15 N         139.5471  143.8691  161.4467 N.ar    1  UNL1       -0.2484
     16 C         138.6060  142.8696  160.8421 C.ar    1  UNL1        0.1023
     17 C         138.5541  141.4693  161.3774 C.ar    1  UNL1        0.0902
     18 C         139.4432  141.0685  162.5170 C.ar    1  UNL1        0.0040
     19 C         140.3842  142.0680  163.1216 C.ar    1  UNL1        0.0113
     20 C         141.2732  141.6672  164.2612 C.3     1  UNL1        0.1213
     21 C         137.6131  140.4697  160.7728 C.3     1  UNL1        0.4200
     22 F         136.6721  139.4702  160.1683 F       1  UNL1       -0.1658
     23 F         137.8203  141.0908  159.4233 F       1  UNL1       -0.1658
     24 F         137.4058  139.8486  162.1224 F       1  UNL1       -0.1658
     25 N         144.7782  138.9019  163.6723 N.3     1  UNL1       -0.2975
     26 H         145.6641  139.4034  163.6078 H       1  UNL1        0.1232
     27 C         144.3232  140.2617  161.5057 C.3     1  UNL1        0.1591
     28 C         143.6544  140.3905  160.1692 C.3     1  UNL1        0.1729
     29 O         142.7719  139.2884  159.6629 O.3     1  UNL1       -0.3511
     30 C         142.5581  138.0574  160.4930 C.3     1  UNL1        0.1437
     31 C         143.2268  137.9286  161.8295 C.3     1  UNL1        0.0503
     32 C         144.1094  139.0307  162.3358 C.3     1  UNL1        0.0865
     33 C         144.7054  142.7778  162.0283 C.3     1  UNL1        0.1742
     34 O         145.2057  141.3638  162.0121 O.3     1  UNL1       -0.3496
     35 O         141.2725  141.4289  169.9442 O.3     1  UNL1       -0.3536
     36 C         140.6193  140.4569  170.8815 C.3     1  UNL1        0.1740
@<TRIPOS>BOND
     1    33    34    1
     2    34    27    1
     3    27    28    1
     4    28    29    1
     5    29    30    1
     6    30    31    1
     7    31    32    1
     8    32    25    1
     9     1    25    1
    10     1     2    1
    11     3     2    1
    12     3     4    1
    13     4     5    1
    14     5    35    1
    15    35    36    1
    16     5     6    1
    17     6     7    1
    18     7     9    1
    19     9    10    2
    20     9    11   am
    21    11    12    1
    22    12    13    1
    23    13    14    1
    24    14    15   ar
    25    15    16   ar
    26    16    17   ar
    27    17    21    1
    28    21    22    1
    29    21    23    1
    30    21    24    1
    31    17    18   ar
    32    18    19   ar
    33    19    20    1
    34     7     8    1
    35    32    27    1
    36     8     1    1
    37     7     3    1
    38    20    11    1
    39    19    14   ar
    40    25    26    1
@<TRIPOS>MOLECULE
*****
 36 40 0 0 0
SMALL
GASTEIGER

@<TRIPOS>ATOM
      1 C         138.9089  140.2036  165.3811 C.3     1  UNL1        0.0545
      2 C         139.7083  139.3509  166.3213 C.3     1  UNL1        0.0163
      3 C         140.6886  140.2371  167.0310 C.3     1  UNL1        0.0120
      4 C         141.7885  140.2578  168.0507 C.3     1  UNL1        0.0301
      5 C         142.2748  141.6709  168.1794 C.3     1  UNL1        0.1158
      6 C         141.4755  142.5236  167.2392 C.3     1  UNL1        0.0382
      7 C         140.4951  141.6375  166.5294 C.3     1  UNL1        0.0728
      8 C         139.3953  141.6168  165.5097 C.3     1  UNL1        0.0244
      9 C         140.3017  143.0378  166.0279 C.2     1  UNL1        0.2251
     10 O         139.6325  144.0603  166.8977 O.2     1  UNL1       -0.2749
     11 N         140.7774  143.4156  164.6563 N.am    1  UNL1       -0.2750
     12 C         140.5839  144.8160  164.1547 C.3     1  UNL1        0.1000
     13 C         141.0596  145.1937  162.7833 C.3     1  UNL1        0.0670
     14 C         141.7288  144.1712  161.9134 C.ar    1  UNL1        0.0583
     15 N         142.2044  144.5491  160.5419 N.ar    1  UNL1       -0.2484
     16 C         142.8736  143.5265  159.6720 C.ar    1  UNL1        0.1023
     17 C         143.0670  142.1261  160.1737 C.ar    1  UNL1        0.0902
     18 C         142.5914  141.7484  161.5451 C.ar    1  UNL1        0.0040
     19 C         141.9222  142.7709  162.4150 C.ar    1  UNL1        0.0113
     20 C         141.4465  142.3931  163.7865 C.3     1  UNL1        0.1213
     21 C         143.7362  141.1036  159.3038 C.3     1  UNL1        0.4200
     22 F         144.4053  140.0811  158.4339 F       1  UNL1       -0.1658
     23 F         144.0575  140.2819  160.5169 F       1  UNL1       -0.1658
     24 F         143.4148  141.9253  158.0907 F       1  UNL1       -0.1658
     25 N         137.8153  139.7269  164.4719 N.3     1  UNL1       -0.2975
     26 H         137.4972  138.8299  164.8389 H       1  UNL1        0.1232
     27 C         137.7252  140.5938  162.0243 C.3     1  UNL1        0.1591
     28 C         137.9993  140.3912  160.5636 C.3     1  UNL1        0.1729
     29 O         138.6376  139.1193  160.0895 O.3     1  UNL1       -0.3511
     30 C         139.0017  138.0497  161.0763 C.3     1  UNL1        0.1437
     31 C         138.7276  138.2523  162.5371 C.3     1  UNL1        0.0503
     32 C         138.0894  139.5243  163.0111 C.3     1  UNL1        0.0865
     33 C         137.8412  143.1597  162.4150 C.3     1  UNL1        0.1742
     34 O         137.0870  141.8657  162.4984 O.3     1  UNL1       -0.3496
     35 O         143.3685  142.1477  169.0886 O.3     1  UNL1       -0.3536
     36 C         143.0278  142.8945  170.3440 C.3     1  UNL1        0.1740
@<TRIPOS>BOND
     1    33    34    1
     2    34    27    1
     3    27    28    1
     4    28    29    1
     5    29    30    1
     6    30    31    1
     7    31    32    1
     8    32    25    1
     9     1    25    1
    10     1     2    1
    11     3     2    1
    12     3     4    1
    13     4     5    1
    14     5    35    1
    15    35    36    1
    16     5     6    1
    17     6     7    1
    18     7     9    1
    19     9    10    2
    20     9    11   am
    21    11    12    1
    22    12    13    1
    23    13    14    1
    24    14    15   ar
    25    15    16   ar
    26    16    17   ar
    27    17    21    1
    28    21    22    1
    29    21    23    1
    30    21    24    1
    31    17    18   ar
    32    18    19   ar
    33    19    20    1
    34     7     8    1
    35    32    27    1
    36     8     1    1
    37     7     3    1
    38    20    11    1
    39    19    14   ar
    40    25    26    1
@<TRIPOS>MOLECULE
*****
 36 40 0 0 0
SMALL
GASTEIGER

@<TRIPOS>ATOM
      1 C         141.5891  137.9728  164.5083 C.3     1  UNL1        0.0545
      2 C         142.6898  138.1566  165.5106 C.3     1  UNL1        0.0163
      3 C         142.2026  139.1051  166.5655 C.3     1  UNL1        0.0120
      4 C         142.5817  139.8048  167.8369 C.3     1  UNL1        0.0301
      5 C         141.4142  140.6398  168.2724 C.3     1  UNL1        0.1158
      6 C         140.3135  140.4561  167.2701 C.3     1  UNL1        0.0382
      7 C         140.8007  139.5076  166.2152 C.3     1  UNL1        0.0728
      8 C         140.4216  138.8078  164.9438 C.3     1  UNL1        0.0244
      9 C         139.3988  139.9101  165.8649 C.2     1  UNL1        0.2251
     10 O         138.2583  139.5032  166.7501 O.2     1  UNL1       -0.2749
     11 N         139.1375  140.7195  164.6292 N.am    1  UNL1       -0.2750
     12 C         137.7356  141.1220  164.2789 C.3     1  UNL1        0.1000
     13 C         137.4743  141.9313  163.0434 C.3     1  UNL1        0.0670
     14 C         138.6148  142.3381  162.1581 C.ar    1  UNL1        0.0583
     15 N         138.3535  143.1475  160.9225 N.ar    1  UNL1       -0.2484
     16 C         139.4940  143.5543  160.0373 C.ar    1  UNL1        0.1023
     17 C         140.8959  143.1518  160.3877 C.ar    1  UNL1        0.0902
     18 C         141.1572  142.3425  161.6232 C.ar    1  UNL1        0.0040
     19 C         140.0167  141.9356  162.5085 C.ar    1  UNL1        0.0113
     20 C         140.2780  141.1263  163.7440 C.3     1  UNL1        0.1213
     21 C         142.0365  143.5586  159.5024 C.3     1  UNL1        0.4200
     22 F         143.1770  143.9655  158.6172 F       1  UNL1       -0.1658
     23 F         141.6860  145.0017  159.7141 F       1  UNL1       -0.1658
     24 F         142.3869  142.1156  159.2907 F       1  UNL1       -0.1658
     25 N         141.6459  137.1063  163.2852 N.3     1  UNL1       -0.2975
     26 H         142.4920  136.5419  163.3632 H       1  UNL1        0.1232
     27 C         140.3809  138.1122  161.2510 C.3     1  UNL1        0.1591
     28 C         140.4024  138.7388  159.8883 C.3     1  UNL1        0.1729
     29 O         141.7105  138.9859  159.1970 O.3     1  UNL1       -0.3511
     30 C         142.9971  138.6065  159.8685 C.3     1  UNL1        0.1437
     31 C         142.9756  137.9799  161.2312 C.3     1  UNL1        0.0503
     32 C         141.6674  137.7328  161.9225 C.3     1  UNL1        0.0865
     33 C         137.8495  138.6277  161.5276 C.3     1  UNL1        0.1742
     34 O         139.0729  137.8651  161.9423 O.3     1  UNL1       -0.3496
     35 O         141.3574  141.5064  169.4955 O.3     1  UNL1       -0.3536
     36 C         140.0317  141.8743  170.0931 C.3     1  UNL1        0.1740
@<TRIPOS>BOND
     1    33    34    1
     2    34    27    1
     3    27    28    1
     4    28    29    1
     5    29    30    1
     6    30    31    1
     7    31    32    1
     8    32    25    1
     9     1    25    1
    10     1     2    1
    11     3     2    1
    12     3     4    1
    13     4     5    1
    14     5    35    1
    15    35    36    1
    16     5     6    1
    17     6     7    1
    18     7     9    1
    19     9    10    2
    20     9    11   am
    21    11    12    1
    22    12    13    1
    23    13    14    1
    24    14    15   ar
    25    15    16   ar
    26    16    17   ar
    27    17    21    1
    28    21    22    1
    29    21    23    1
    30    21    24    1
    31    17    18   ar
    32    18    19   ar
    33    19    20    1
    34     7     8    1
    35    32    27    1
    36     8     1    1
    37     7     3    1
    38    20    11    1
    39    19    14   ar
    40    25    26    1
@<TRIPOS>MOLECULE
*****
 36 40 0 0 0
SMALL
GASTEIGER

@<TRIPOS>ATOM
      1 C         141.3412  143.8086  160.0518 C.3     1  UNL1        0.0545
      2 C         139.9824  144.2468  159.5918 C.3     1  UNL1        0.0163
      3 C         139.3245  143.0818  158.9138 C.3     1  UNL1        0.0120
      4 C         138.0781  142.6326  158.2104 C.3     1  UNL1        0.0301
      5 C         138.2600  141.1967  157.8166 C.3     1  UNL1        0.1158
      6 C         139.6188  140.7584  158.2765 C.3     1  UNL1        0.0382
      7 C         140.2768  141.9235  158.9546 C.3     1  UNL1        0.0728
      8 C         141.5231  142.3727  159.6579 C.3     1  UNL1        0.0244
      9 C         141.2290  140.7652  158.9954 C.2     1  UNL1        0.2251
     10 O         142.1979  140.5508  157.8706 O.2     1  UNL1       -0.2749
     11 N         141.2123  139.8214  160.1612 N.am    1  UNL1       -0.2750
     12 C         142.1646  138.6631  160.2020 C.3     1  UNL1        0.1000
     13 C         142.1479  137.7193  161.3677 C.3     1  UNL1        0.0670
     14 C         141.1790  137.9337  162.4926 C.ar    1  UNL1        0.0583
     15 N         141.1624  136.9899  163.6583 N.ar    1  UNL1       -0.2484
     16 C         140.1935  137.2043  164.7832 C.ar    1  UNL1        0.1023
     17 C         139.2412  138.3626  164.7423 C.ar    1  UNL1        0.0902
     18 C         139.2579  139.3064  163.5766 C.ar    1  UNL1        0.0040
     19 C         140.2268  139.0920  162.4517 C.ar    1  UNL1        0.0113
     20 C         140.2435  140.0358  161.2860 C.3     1  UNL1        0.1213
     21 C         138.2723  138.5770  165.8671 C.3     1  UNL1        0.4200
     22 F         137.3035  138.7915  166.9920 F       1  UNL1       -0.1658
     23 F         138.1651  137.0930  166.0577 F       1  UNL1       -0.1658
     24 F         138.3796  140.0610  165.6766 F       1  UNL1       -0.1658
     25 N         142.3425  144.6573  160.7780 N.3     1  UNL1       -0.2975
     26 H         143.0679  144.8995  160.1031 H       1  UNL1        0.1232
     27 C         142.5363  144.4616  163.3614 C.3     1  UNL1        0.1591
     28 C         143.2356  143.9239  164.5747 C.3     1  UNL1        0.1729
     29 O         144.4404  143.0443  164.4177 O.3     1  UNL1       -0.3511
     30 C         144.9460  142.7024  163.0474 C.3     1  UNL1        0.1437
     31 C         144.2467  143.2400  161.8342 C.3     1  UNL1        0.0503
     32 C         143.0418  144.1197  161.9912 C.3     1  UNL1        0.0865
     33 C         139.9573  144.7396  163.5088 C.3     1  UNL1        0.1742
     34 O         141.3314  145.3411  163.5184 O.3     1  UNL1       -0.3496
     35 O         137.2588  140.3480  157.0903 O.3     1  UNL1       -0.3536
     36 C         136.1220  140.9931  156.3545 C.3     1  UNL1        0.1740
@<TRIPOS>BOND
     1    33    34    1
     2    34    27    1
     3    27    28    1
     4    28    29    1
     5    29    30    1
     6    30    31    1
     7    31    32    1
     8    32    25    1
     9     1    25    1
    10     1     2    1
    11     3     2    1
    12     3     4    1
    13     4     5    1
    14     5    35    1
    15    35    36    1
    16     5     6    1
    17     6     7    1
    18     7     9    1
    19     9    10    2
    20     9    11   am
    21    11    12    1
    22    12    13    1
    23    13    14    1
    24    14    15   ar
    25    15    16   ar
    26    16    17   ar
    27    17    21    1
    28    21    22    1
    29    21    23    1
    30    21    24    1
    31    17    18   ar
    32    18    19   ar
    33    19    20    1
    34     7     8    1
    35    32    27    1
    36     8     1    1
    37     7     3    1
    38    20    11    1
    39    19    14   ar
    40    25    26    1
@<TRIPOS>MOLECULE
*****
 36 40 0 0 0
SMALL
GASTEIGER

@<TRIPOS>ATOM
      1 C         139.2782  140.6714  160.9532 C.3     1  UNL1        0.0545
      2 C         140.0553  140.7952  159.6763 C.3     1  UNL1        0.0163
      3 C         140.5466  142.2083  159.5677 C.3     1  UNL1        0.0120
      4 C         141.3305  143.1582  158.7115 C.3     1  UNL1        0.0301
      5 C         141.3414  144.4948  159.3922 C.3     1  UNL1        0.1158
      6 C         140.5643  144.3710  160.6692 C.3     1  UNL1        0.0382
      7 C         140.0731  142.9579  160.7777 C.3     1  UNL1        0.0728
      8 C         139.2892  142.0080  161.6340 C.3     1  UNL1        0.0244
      9 C         139.5995  143.7074  161.9876 C.2     1  UNL1        0.2251
     10 O         138.7368  144.9238  161.8263 O.2     1  UNL1       -0.2749
     11 N         139.9887  143.2405  163.3590 N.am    1  UNL1       -0.2750
     12 C         139.5152  143.9900  164.5689 C.3     1  UNL1        0.1000
     13 C         139.9044  143.5232  165.9402 C.3     1  UNL1        0.0670
     14 C         140.7671  142.3068  166.1016 C.ar    1  UNL1        0.0583
     15 N         141.1563  141.8399  167.4730 N.ar    1  UNL1       -0.2484
     16 C         142.0191  140.6235  167.6343 C.ar    1  UNL1        0.1023
     17 C         142.4926  139.8739  166.4243 C.ar    1  UNL1        0.0902
     18 C         142.1034  140.3408  165.0530 C.ar    1  UNL1        0.0040
     19 C         141.2407  141.5572  164.8917 C.ar    1  UNL1        0.0113
     20 C         140.8515  142.0241  163.5204 C.3     1  UNL1        0.1213
     21 C         143.3554  138.6575  166.5857 C.3     1  UNL1        0.4200
     22 F         144.2181  137.4411  166.7471 F       1  UNL1       -0.1658
     23 F         143.0152  138.6100  168.0459 F       1  UNL1       -0.1658
     24 F         143.6955  138.7051  165.1255 F       1  UNL1       -0.1658
     25 N         138.6078  139.4291  161.4605 N.3     1  UNL1       -0.2975
     26 H         137.6557  139.6915  161.7155 H       1  UNL1        0.1232
     27 C         140.3794  137.8067  162.4500 C.3     1  UNL1        0.1591
     28 C         140.9544  137.0699  163.6232 C.3     1  UNL1        0.1729
     29 O         140.3328  137.2186  164.9802 O.3     1  UNL1       -0.3511
     30 C         139.1362  138.1043  165.1640 C.3     1  UNL1        0.1437
     31 C         138.5611  138.8411  163.9908 C.3     1  UNL1        0.0503
     32 C         139.1828  138.6923  162.6337 C.3     1  UNL1        0.0865
     33 C         142.4783  137.8521  160.9193 C.3     1  UNL1        0.1742
     34 O         141.0010  137.6579  161.0930 O.3     1  UNL1       -0.3496
     35 O         142.0118  145.7372  158.8850 O.3     1  UNL1       -0.3536
     36 C         142.1039  145.9906  157.4094 C.3     1  UNL1        0.1740
@<TRIPOS>BOND
     1    33    34    1
     2    34    27    1
     3    27    28    1
     4    28    29    1
     5    29    30    1
     6    30    31    1
     7    31    32    1
     8    32    25    1
     9     1    25    1
    10     1     2    1
    11     3     2    1
    12     3     4    1
    13     4     5    1
    14     5    35    1
    15    35    36    1
    16     5     6    1
    17     6     7    1
    18     7     9    1
    19     9    10    2
    20     9    11   am
    21    11    12    1
    22    12    13    1
    23    13    14    1
    24    14    15   ar
    25    15    16   ar
    26    16    17   ar
    27    17    21    1
    28    21    22    1
    29    21    23    1
    30    21    24    1
    31    17    18   ar
    32    18    19   ar
    33    19    20    1
    34     7     8    1
    35    32    27    1
    36     8     1    1
    37     7     3    1
    38    20    11    1
    39    19    14   ar
    40    25    26    1
@<TRIPOS>MOLECULE
*****
 36 40 0 0 0
SMALL
GASTEIGER

@<TRIPOS>ATOM
      1 C         139.1607  141.7341  160.1375 C.3     1  UNL1        0.0545
      2 C         138.8341  140.6621  159.1404 C.3     1  UNL1        0.0163
      3 C         140.0590  139.8177  158.9497 C.3     1  UNL1        0.0120
      4 C         140.6143  138.6333  158.2156 C.3     1  UNL1        0.0301
      5 C         142.0411  138.4514  158.6411 C.3     1  UNL1        0.1158
      6 C         142.3677  139.5233  159.6382 C.3     1  UNL1        0.0382
      7 C         141.1428  140.3678  159.8290 C.3     1  UNL1        0.0728
      8 C         140.5875  141.5521  160.5630 C.3     1  UNL1        0.0244
      9 C         142.2264  140.9178  160.7082 C.2     1  UNL1        0.2251
     10 O         143.4413  141.5491  160.0954 O.2     1  UNL1       -0.2749
     11 N         142.0951  140.8367  162.2003 N.am    1  UNL1       -0.2750
     12 C         143.1788  141.3868  163.0795 C.3     1  UNL1        0.1000
     13 C         143.0475  141.3057  164.5715 C.3     1  UNL1        0.0670
     14 C         141.8326  140.6745  165.1843 C.ar    1  UNL1        0.0583
     15 N         141.7013  140.5934  166.6764 N.ar    1  UNL1       -0.2484
     16 C         140.4864  139.9621  167.2892 C.ar    1  UNL1        0.1023
     17 C         139.4027  139.4120  166.4098 C.ar    1  UNL1        0.0902
     18 C         139.5340  139.4932  164.9178 C.ar    1  UNL1        0.0040
     19 C         140.7489  140.1244  164.3051 C.ar    1  UNL1        0.0113
     20 C         140.8802  140.2055  162.8131 C.3     1  UNL1        0.1213
     21 C         138.1877  138.7808  167.0226 C.3     1  UNL1        0.4200
     22 F         136.9728  138.1496  167.6354 F       1  UNL1       -0.1658
     23 F         138.4156  139.5642  168.2813 F       1  UNL1       -0.1658
     24 F         137.9599  137.9974  165.7639 F       1  UNL1       -0.1658
     25 N         138.2247  142.8007  160.6238 N.3     1  UNL1       -0.2975
     26 H         138.4298  143.6411  160.0832 H       1  UNL1        0.1232
     27 C         138.7970  144.5317  162.4748 C.3     1  UNL1        0.1591
     28 C         138.8040  144.9338  163.9199 C.3     1  UNL1        0.1729
     29 O         138.2459  144.0072  164.9590 O.3     1  UNL1       -0.3511
     30 C         137.6807  142.6783  164.5530 C.3     1  UNL1        0.1437
     31 C         137.6737  142.2761  163.1080 C.3     1  UNL1        0.0503
     32 C         138.2318  143.2029  162.0688 C.3     1  UNL1        0.0865
     33 C         140.7937  145.3464  161.0258 C.3     1  UNL1        0.1742
     34 O         139.3551  145.4583  161.4357 O.3     1  UNL1       -0.3496
     35 O         142.9770  137.3847  158.1549 O.3     1  UNL1       -0.3536
     36 C         142.8643  136.8715  156.7499 C.3     1  UNL1        0.1740
@<TRIPOS>BOND
     1    33    34    1
     2    34    27    1
     3    27    28    1
     4    28    29    1
     5    29    30    1
     6    30    31    1
     7    31    32    1
     8    32    25    1
     9     1    25    1
    10     1     2    1
    11     3     2    1
    12     3     4    1
    13     4     5    1
    14     5    35    1
    15    35    36    1
    16     5     6    1
    17     6     7    1
    18     7     9    1
    19     9    10    2
    20     9    11   am
    21    11    12    1
    22    12    13    1
    23    13    14    1
    24    14    15   ar
    25    15    16   ar
    26    16    17   ar
    27    17    21    1
    28    21    22    1
    29    21    23    1
    30    21    24    1
    31    17    18   ar
    32    18    19   ar
    33    19    20    1
    34     7     8    1
    35    32    27    1
    36     8     1    1
    37     7     3    1
    38    20    11    1
    39    19    14   ar
    40    25    26    1
