@<TRIPOS>MOLECULE
*****
 31 33 0 0 0
SMALL
GASTEIGER

@<TRIPOS>ATOM
      1 C         140.1380  140.4145  167.7941 C.ar    1  UNL1        0.0555
      2 C         140.6113  140.3565  166.3719 C.ar    1  UNL1        0.0168
      3 C         139.7915  139.6443  165.3372 C.ar    1  UNL1        0.0505
      4 C         138.4984  138.9902  165.7246 C.ar    1  UNL1        0.0170
      5 C         138.0252  139.0482  167.1468 C.ar    1  UNL1        0.0307
      6 C         138.8450  139.7604  168.1815 C.ar    1  UNL1        0.1402
      7 F         138.3717  139.8185  169.6038 F       1  UNL1       -0.2044
      8 C         140.1967  142.2857  168.2566 C.3     1  UNL1        0.0638
      9 C         140.9579  141.1267  168.8289 C.3     1  UNL1        0.2513
     10 N         141.4342  139.7204  169.0418 N.2     1  UNL1       -0.0663
     11 C         142.4660  139.4288  170.0907 C.2     1  UNL1        0.3195
     12 N         142.9424  138.0224  170.3036 N.pl3   1  UNL1       -0.2480
     13 C         143.0215  140.5435  170.9268 C.3     1  UNL1        0.2611
     14 O         142.5451  141.9498  170.7139 O.3     1  UNL1       -0.3108
     15 C         141.5133  142.2414  169.6649 C.3     1  UNL1        0.3281
     16 F         141.0369  143.6477  169.4520 F       1  UNL1       -0.1989
     17 H         142.5778  137.2908  169.7549 H       1  UNL1        0.2882
     18 H         143.6196  137.8310  170.9921 H       1  UNL1        0.2882
     19 N         140.2648  139.5863  163.9149 N.am    1  UNL1       -0.2791
     20 C         141.0611  138.4084  163.4370 C.2     1  UNL1        0.2695
     21 O         141.3842  137.2886  164.3813 O.2     1  UNL1       -0.2681
     22 H         140.0527  140.3213  163.2952 H       1  UNL1        0.1552
     23 C         141.5343  138.3503  162.0148 C.ar    1  UNL1        0.1621
     24 N         140.5401  138.3740  160.8919 N.ar    1  UNL1       -0.2363
     25 C         141.0134  138.3159  159.4697 C.ar    1  UNL1        0.1094
     26 C         142.4809  138.2341  159.1704 C.ar    1  UNL1        0.0898
     27 C         143.4752  138.2104  160.2933 C.ar    1  UNL1        0.0432
     28 C         143.0019  138.2685  161.7155 C.ar    1  UNL1        0.1628
     29 F         143.9962  138.2447  162.8383 F       1  UNL1       -0.2024
     30 C         142.9541  138.1760  157.7482 C.1     1  UNL1        0.1021
     31 N         143.4275  138.1179  156.3260 N.1     1  UNL1       -0.1908
@<TRIPOS>BOND
     1     9     8    1
     2     9     1    1
     3     1     2   ar
     4     2     3   ar
     5     3    19    1
     6    19    20   am
     7    20    21    2
     8    20    23    1
     9    23    24   ar
    10    24    25   ar
    11    25    26   ar
    12    26    30    1
    13    30    31    3
    14    26    27   ar
    15    27    28   ar
    16    28    29    1
    17     3     4   ar
    18     4     5   ar
    19     5     6   ar
    20     6     7    1
    21     9    10    1
    22    10    11    2
    23    11    12    1
    24    11    13    1
    25    13    14    1
    26    14    15    1
    27    15    16    1
    28    15     9    1
    29     6     1   ar
    30    28    23   ar
    31    19    22    1
    32    12    17    1
    33    12    18    1
@<TRIPOS>MOLECULE
*****
 31 33 0 0 0
SMALL
GASTEIGER

@<TRIPOS>ATOM
      1 C         141.5240  140.3844  167.3911 C.ar    1  UNL1        0.0555
      2 C         141.1294  141.1246  166.1476 C.ar    1  UNL1        0.0168
      3 C         141.7910  140.8017  164.8408 C.ar    1  UNL1        0.0505
      4 C         142.8473  139.7386  164.7774 C.ar    1  UNL1        0.0170
      5 C         143.2420  138.9984  166.0209 C.ar    1  UNL1        0.0307
      6 C         142.5803  139.3213  167.3278 C.ar    1  UNL1        0.1402
      7 F         142.9750  138.5811  168.5713 F       1  UNL1       -0.2044
      8 C         139.7856  139.8823  168.0578 C.3     1  UNL1        0.0638
      9 C         140.8624  140.7073  168.6981 C.3     1  UNL1        0.2513
     10 N         142.1689  141.4202  168.8845 N.2     1  UNL1       -0.0663
     11 C         142.4399  142.1694  170.1554 C.2     1  UNL1        0.3195
     12 N         143.7465  142.8822  170.3417 N.pl3   1  UNL1       -0.2480
     13 C         141.4042  142.2058  171.2399 C.3     1  UNL1        0.2611
     14 O         140.0977  141.4929  171.0535 O.3     1  UNL1       -0.3108
     15 C         139.8268  140.7437  169.7826 C.3     1  UNL1        0.3281
     16 F         138.5202  140.0308  169.5961 F       1  UNL1       -0.1989
     17 H         144.4262  142.8584  169.6299 H       1  UNL1        0.2882
     18 H         143.9244  143.3740  171.1759 H       1  UNL1        0.2882
     19 N         141.3964  141.5419  163.5972 N.am    1  UNL1       -0.2791
     20 C         141.9480  142.9115  163.3327 C.2     1  UNL1        0.2695
     21 O         142.8943  143.5409  164.3118 O.2     1  UNL1       -0.2681
     22 H         140.7753  141.1288  162.9546 H       1  UNL1        0.1552
     23 C         141.5534  143.6517  162.0892 C.ar    1  UNL1        0.1621
     24 N         142.1590  143.2767  160.7691 N.ar    1  UNL1       -0.2363
     25 C         141.7643  144.0170  159.5256 C.ar    1  UNL1        0.1094
     26 C         140.7642  145.1322  159.6022 C.ar    1  UNL1        0.0898
     27 C         140.1586  145.5073  160.9223 C.ar    1  UNL1        0.0432
     28 C         140.5532  144.7670  162.1658 C.ar    1  UNL1        0.1628
     29 F         139.9477  145.1421  163.4859 F       1  UNL1       -0.2024
     30 C         140.3696  145.8724  158.3587 C.1     1  UNL1        0.1021
     31 N         139.9750  146.6127  157.1151 N.1     1  UNL1       -0.1908
@<TRIPOS>BOND
     1     9     8    1
     2     9     1    1
     3     1     2   ar
     4     2     3   ar
     5     3    19    1
     6    19    20   am
     7    20    21    2
     8    20    23    1
     9    23    24   ar
    10    24    25   ar
    11    25    26   ar
    12    26    30    1
    13    30    31    3
    14    26    27   ar
    15    27    28   ar
    16    28    29    1
    17     3     4   ar
    18     4     5   ar
    19     5     6   ar
    20     6     7    1
    21     9    10    1
    22    10    11    2
    23    11    12    1
    24    11    13    1
    25    13    14    1
    26    14    15    1
    27    15    16    1
    28    15     9    1
    29     6     1   ar
    30    28    23   ar
    31    19    22    1
    32    12    17    1
    33    12    18    1
@<TRIPOS>MOLECULE
*****
 31 33 0 0 0
SMALL
GASTEIGER

@<TRIPOS>ATOM
      1 C         142.3994  140.9480  167.8879 C.ar    1  UNL1        0.0555
      2 C         142.2454  141.7707  166.6432 C.ar    1  UNL1        0.0168
      3 C         142.4041  141.1300  165.2963 C.ar    1  UNL1        0.0505
      4 C         142.7169  139.6665  165.1941 C.ar    1  UNL1        0.0170
      5 C         142.8709  138.8438  166.4388 C.ar    1  UNL1        0.0307
      6 C         142.7122  139.4846  167.7857 C.ar    1  UNL1        0.1402
      7 F         142.8663  138.6618  169.0306 F       1  UNL1       -0.2044
      8 C         143.5773  142.1427  168.8388 C.3     1  UNL1        0.0638
      9 C         142.2407  141.5888  169.2349 C.3     1  UNL1        0.2513
     10 N         140.9593  140.8124  169.1632 N.2     1  UNL1       -0.0663
     11 C         139.9834  140.8690  170.3009 C.2     1  UNL1        0.3195
     12 N         138.7020  140.0926  170.2292 N.pl3   1  UNL1       -0.2480
     13 C         140.2889  141.7022  171.5103 C.3     1  UNL1        0.2611
     14 O         141.5703  142.4786  171.5820 O.3     1  UNL1       -0.3108
     15 C         142.5462  142.4219  170.4444 C.3     1  UNL1        0.3281
     16 F         143.8276  143.1983  170.5160 F       1  UNL1       -0.1989
     17 H         138.5015  139.5458  169.4354 H       1  UNL1        0.2882
     18 H         138.0614  140.1298  170.9758 H       1  UNL1        0.2882
     19 N         142.2500  141.9527  164.0515 N.am    1  UNL1       -0.2791
     20 C         140.8812  142.2660  163.5242 C.2     1  UNL1        0.2695
     21 O         139.6663  141.7566  164.2418 O.2     1  UNL1       -0.2681
     22 H         143.0474  142.2870  163.5806 H       1  UNL1        0.1552
     23 C         140.7271  143.0887  162.2795 C.ar    1  UNL1        0.1621
     24 N         140.5272  142.4142  160.9547 N.ar    1  UNL1       -0.2363
     25 C         140.3731  143.2370  159.7099 C.ar    1  UNL1        0.1094
     26 C         140.4189  144.7341  159.7900 C.ar    1  UNL1        0.0898
     27 C         140.6187  145.4086  161.1148 C.ar    1  UNL1        0.0432
     28 C         140.7728  144.5859  162.3595 C.ar    1  UNL1        0.1628
     29 F         140.9726  145.2603  163.6844 F       1  UNL1       -0.2024
     30 C         140.2648  145.5568  158.5452 C.1     1  UNL1        0.1021
     31 N         140.1107  146.3795  157.3004 N.1     1  UNL1       -0.1908
@<TRIPOS>BOND
     1     9     8    1
     2     9     1    1
     3     1     2   ar
     4     2     3   ar
     5     3    19    1
     6    19    20   am
     7    20    21    2
     8    20    23    1
     9    23    24   ar
    10    24    25   ar
    11    25    26   ar
    12    26    30    1
    13    30    31    3
    14    26    27   ar
    15    27    28   ar
    16    28    29    1
    17     3     4   ar
    18     4     5   ar
    19     5     6   ar
    20     6     7    1
    21     9    10    1
    22    10    11    2
    23    11    12    1
    24    11    13    1
    25    13    14    1
    26    14    15    1
    27    15    16    1
    28    15     9    1
    29     6     1   ar
    30    28    23   ar
    31    19    22    1
    32    12    17    1
    33    12    18    1
@<TRIPOS>MOLECULE
*****
 31 33 0 0 0
SMALL
GASTEIGER

@<TRIPOS>ATOM
      1 C         140.9219  141.8421  167.3180 C.ar    1  UNL1        0.0555
      2 C         141.1132  140.9554  166.1234 C.ar    1  UNL1        0.0168
      3 C         140.5677  141.3677  164.7884 C.ar    1  UNL1        0.0505
      4 C         139.8309  142.6667  164.6479 C.ar    1  UNL1        0.0170
      5 C         139.6397  143.5534  165.8425 C.ar    1  UNL1        0.0307
      6 C         140.1852  143.1411  167.1776 C.ar    1  UNL1        0.1402
      7 F         139.9939  144.0278  168.3723 F       1  UNL1       -0.2044
      8 C         142.7014  142.0216  168.0391 C.3     1  UNL1        0.0638
      9 C         141.4674  141.4298  168.6532 C.3     1  UNL1        0.2513
     10 N         140.0440  140.9812  168.8036 N.2     1  UNL1       -0.0663
     11 C         139.5947  140.3258  170.0758 C.2     1  UNL1        0.3195
     12 N         138.1712  139.8772  170.2262 N.pl3   1  UNL1       -0.2480
     13 C         140.5688  140.1191  171.1976 C.3     1  UNL1        0.2611
     14 O         141.9921  140.5677  171.0472 O.3     1  UNL1       -0.3108
     15 C         142.4415  141.2231  169.7750 C.3     1  UNL1        0.3281
     16 F         143.8649  141.6717  169.6245 F       1  UNL1       -0.1989
     17 H         137.5319  140.0129  169.4899 H       1  UNL1        0.2882
     18 H         137.8763  139.4471  171.0612 H       1  UNL1        0.2882
     19 N         140.7589  140.4810  163.5937 N.am    1  UNL1       -0.2791
     20 C         141.9334  140.6906  162.6844 C.2     1  UNL1        0.2695
     21 O         142.9165  141.7870  162.9698 O.2     1  UNL1       -0.2681
     22 H         140.1137  139.7614  163.4064 H       1  UNL1        0.1552
     23 C         142.1246  139.8040  161.4898 C.ar    1  UNL1        0.1621
     24 N         141.4951  140.1672  160.1776 N.ar    1  UNL1       -0.2363
     25 C         141.6864  139.2805  158.9830 C.ar    1  UNL1        0.1094
     26 C         142.5073  138.0306  159.1005 C.ar    1  UNL1        0.0898
     27 C         143.1368  137.6673  160.4126 C.ar    1  UNL1        0.0432
     28 C         142.9456  138.5540  161.6072 C.ar    1  UNL1        0.1628
     29 F         143.5751  138.1907  162.9193 F       1  UNL1       -0.2024
     30 C         142.6985  137.1439  157.9058 C.1     1  UNL1        0.1021
     31 N         142.8898  136.2573  156.7111 N.1     1  UNL1       -0.1908
@<TRIPOS>BOND
     1     9     8    1
     2     9     1    1
     3     1     2   ar
     4     2     3   ar
     5     3    19    1
     6    19    20   am
     7    20    21    2
     8    20    23    1
     9    23    24   ar
    10    24    25   ar
    11    25    26   ar
    12    26    30    1
    13    30    31    3
    14    26    27   ar
    15    27    28   ar
    16    28    29    1
    17     3     4   ar
    18     4     5   ar
    19     5     6   ar
    20     6     7    1
    21     9    10    1
    22    10    11    2
    23    11    12    1
    24    11    13    1
    25    13    14    1
    26    14    15    1
    27    15    16    1
    28    15     9    1
    29     6     1   ar
    30    28    23   ar
    31    19    22    1
    32    12    17    1
    33    12    18    1
@<TRIPOS>MOLECULE
*****
 31 33 0 0 0
SMALL
GASTEIGER

@<TRIPOS>ATOM
      1 C         140.5254  140.3516  167.3549 C.ar    1  UNL1        0.0555
      2 C         141.3163  140.2854  166.0821 C.ar    1  UNL1        0.0168
      3 C         140.7657  139.5534  164.8943 C.ar    1  UNL1        0.0505
      4 C         139.4243  138.8875  164.9793 C.ar    1  UNL1        0.0170
      5 C         138.6335  138.9537  166.2521 C.ar    1  UNL1        0.0307
      6 C         139.1840  139.6858  167.4399 C.ar    1  UNL1        0.1402
      7 F         138.3932  139.7520  168.7129 F       1  UNL1       -0.2044
      8 C         140.3649  142.2084  167.8502 C.3     1  UNL1        0.0638
      9 C         141.0760  141.0837  168.5428 C.3     1  UNL1        0.2513
     10 N         141.5958  139.7049  168.8228 N.2     1  UNL1       -0.0663
     11 C         142.4193  139.4487  170.0501 C.2     1  UNL1        0.3195
     12 N         142.9391  138.0697  170.3300 N.pl3   1  UNL1       -0.2480
     13 C         142.7228  140.5714  170.9974 C.3     1  UNL1        0.2611
     14 O         142.2030  141.9502  170.7174 O.3     1  UNL1       -0.3108
     15 C         141.3796  142.2065  169.4901 C.3     1  UNL1        0.3281
     16 F         140.8597  143.5853  169.2100 F       1  UNL1       -0.1989
     17 H         142.7398  137.3329  169.7083 H       1  UNL1        0.2882
     18 H         143.4795  137.9015  171.1356 H       1  UNL1        0.2882
     19 N         141.5566  139.4871  163.6214 N.am    1  UNL1       -0.2791
     20 C         141.3095  140.4882  162.5320 C.2     1  UNL1        0.2695
     21 O         140.2717  141.5556  162.7156 O.2     1  UNL1       -0.2681
     22 H         142.2377  138.7866  163.5009 H       1  UNL1        0.1552
     23 C         142.1003  140.4220  161.2591 C.ar    1  UNL1        0.1621
     24 N         143.0596  141.5224  160.9140 N.ar    1  UNL1       -0.2363
     25 C         143.8504  141.4561  159.6411 C.ar    1  UNL1        0.1094
     26 C         143.6819  140.2896  158.7133 C.ar    1  UNL1        0.0898
     27 C         142.7227  139.1893  159.0584 C.ar    1  UNL1        0.0432
     28 C         141.9319  139.2555  160.3313 C.ar    1  UNL1        0.1628
     29 F         140.9726  138.1551  160.6764 F       1  UNL1       -0.2024
     30 C         144.4727  140.2234  157.4405 C.1     1  UNL1        0.1021
     31 N         145.2635  140.1573  156.1675 N.1     1  UNL1       -0.1908
@<TRIPOS>BOND
     1     9     8    1
     2     9     1    1
     3     1     2   ar
     4     2     3   ar
     5     3    19    1
     6    19    20   am
     7    20    21    2
     8    20    23    1
     9    23    24   ar
    10    24    25   ar
    11    25    26   ar
    12    26    30    1
    13    30    31    3
    14    26    27   ar
    15    27    28   ar
    16    28    29    1
    17     3     4   ar
    18     4     5   ar
    19     5     6   ar
    20     6     7    1
    21     9    10    1
    22    10    11    2
    23    11    12    1
    24    11    13    1
    25    13    14    1
    26    14    15    1
    27    15    16    1
    28    15     9    1
    29     6     1   ar
    30    28    23   ar
    31    19    22    1
    32    12    17    1
    33    12    18    1
@<TRIPOS>MOLECULE
*****
 31 33 0 0 0
SMALL
GASTEIGER

@<TRIPOS>ATOM
      1 C         140.3954  140.7324  166.7005 C.ar    1  UNL1        0.0555
      2 C         140.7451  141.3833  165.3952 C.ar    1  UNL1        0.0168
      3 C         139.7976  141.2953  164.2357 C.ar    1  UNL1        0.0505
      4 C         138.5005  140.5563  164.3815 C.ar    1  UNL1        0.0170
      5 C         138.1508  139.9054  165.6868 C.ar    1  UNL1        0.0307
      6 C         139.0983  139.9934  166.8463 C.ar    1  UNL1        0.1402
      7 F         138.7486  139.3425  168.1518 F       1  UNL1       -0.2044
      8 C         141.8265  139.5508  167.2244 C.3     1  UNL1        0.0638
      9 C         141.3429  140.8205  167.8601 C.3     1  UNL1        0.2513
     10 N         140.5303  142.0595  168.0931 N.2     1  UNL1       -0.0663
     11 C         140.8331  142.9457  169.2649 C.2     1  UNL1        0.3195
     12 N         140.0204  144.1848  169.4979 N.pl3   1  UNL1       -0.2480
     13 C         141.9485  142.5927  170.2036 C.3     1  UNL1        0.2611
     14 O         142.7611  141.3537  169.9706 O.3     1  UNL1       -0.3108
     15 C         142.4584  140.4675  168.7989 C.3     1  UNL1        0.3281
     16 F         143.2710  139.2284  168.5658 F       1  UNL1       -0.1989
     17 H         139.2883  144.4164  168.8817 H       1  UNL1        0.2882
     18 H         140.2191  144.7664  170.2669 H       1  UNL1        0.2882
     19 N         140.1473  141.9462  162.9302 N.am    1  UNL1       -0.2791
     20 C         139.2864  143.0481  162.3873 C.2     1  UNL1        0.2695
     21 O         138.0759  143.4990  163.1498 O.2     1  UNL1       -0.2681
     22 H         140.9418  141.6503  162.4298 H       1  UNL1        0.1552
     23 C         139.6360  143.6990  161.0819 C.ar    1  UNL1        0.1621
     24 N         139.0601  143.1699  159.8020 N.ar    1  UNL1       -0.2363
     25 C         139.4098  143.8209  158.4966 C.ar    1  UNL1        0.1094
     26 C         140.3353  145.0010  158.4712 C.ar    1  UNL1        0.0898
     27 C         140.9112  145.5301  159.7511 C.ar    1  UNL1        0.0432
     28 C         140.5616  144.8792  161.0565 C.ar    1  UNL1        0.1628
     29 F         141.1375  145.4084  162.3364 F       1  UNL1       -0.2024
     30 C         140.6849  145.6519  157.1658 C.1     1  UNL1        0.1021
     31 N         141.0345  146.3029  155.8604 N.1     1  UNL1       -0.1908
@<TRIPOS>BOND
     1     9     8    1
     2     9     1    1
     3     1     2   ar
     4     2     3   ar
     5     3    19    1
     6    19    20   am
     7    20    21    2
     8    20    23    1
     9    23    24   ar
    10    24    25   ar
    11    25    26   ar
    12    26    30    1
    13    30    31    3
    14    26    27   ar
    15    27    28   ar
    16    28    29    1
    17     3     4   ar
    18     4     5   ar
    19     5     6   ar
    20     6     7    1
    21     9    10    1
    22    10    11    2
    23    11    12    1
    24    11    13    1
    25    13    14    1
    26    14    15    1
    27    15    16    1
    28    15     9    1
    29     6     1   ar
    30    28    23   ar
    31    19    22    1
    32    12    17    1
    33    12    18    1
@<TRIPOS>MOLECULE
*****
 31 33 0 0 0
SMALL
GASTEIGER

@<TRIPOS>ATOM
      1 C         139.8159  146.2989  155.8471 C.ar    1  UNL1        0.0555
      2 C         140.6896  146.1993  157.0623 C.ar    1  UNL1        0.0168
      3 C         140.8234  144.8916  157.7847 C.ar    1  UNL1        0.0505
      4 C         140.0835  143.6834  157.2919 C.ar    1  UNL1        0.0170
      5 C         139.2099  143.7829  156.0767 C.ar    1  UNL1        0.0307
      6 C         139.0761  145.0907  155.3543 C.ar    1  UNL1        0.1402
      7 F         138.2023  145.1902  154.1390 F       1  UNL1       -0.2044
      8 C         140.4062  146.8065  154.0829 C.3     1  UNL1        0.0638
      9 C         139.6820  147.6066  155.1247 C.3     1  UNL1        0.2513
     10 N         139.0044  147.9526  156.4173 N.2     1  UNL1       -0.0663
     11 C         138.4444  149.3285  156.6258 C.2     1  UNL1        0.3195
     12 N         137.7667  149.6744  157.9185 N.pl3   1  UNL1       -0.2480
     13 C         138.5620  150.3583  155.5415 C.3     1  UNL1        0.2611
     14 O         139.2397  150.0123  154.2488 O.3     1  UNL1       -0.3108
     15 C         139.7997  148.6365  154.0404 C.3     1  UNL1        0.3281
     16 F         140.4774  148.2904  152.7477 F       1  UNL1       -0.1989
     17 H         137.6894  148.9985  158.6301 H       1  UNL1        0.2882
     18 H         137.3991  150.5774  158.0553 H       1  UNL1        0.2882
     19 N         141.6971  144.7920  158.9999 N.am    1  UNL1       -0.2791
     20 C         141.0787  144.6327  160.3572 C.2     1  UNL1        0.2695
     21 O         139.5866  144.5731  160.4992 O.2     1  UNL1       -0.2681
     22 H         142.6764  144.8312  158.9067 H       1  UNL1        0.1552
     23 C         141.9523  144.5332  161.5724 C.ar    1  UNL1        0.1621
     24 N         143.3058  143.8944  161.4728 N.ar    1  UNL1       -0.2363
     25 C         144.1795  143.7948  162.6881 C.ar    1  UNL1        0.1094
     26 C         143.6996  144.3340  164.0030 C.ar    1  UNL1        0.0898
     27 C         142.3460  144.9728  164.1026 C.ar    1  UNL1        0.0432
     28 C         141.4724  145.0724  162.8874 C.ar    1  UNL1        0.1628
     29 F         140.1189  145.7111  162.9870 F       1  UNL1       -0.2024
     30 C         144.5732  144.2344  165.2182 C.1     1  UNL1        0.1021
     31 N         145.4469  144.1349  166.4335 N.1     1  UNL1       -0.1908
@<TRIPOS>BOND
     1     9     8    1
     2     9     1    1
     3     1     2   ar
     4     2     3   ar
     5     3    19    1
     6    19    20   am
     7    20    21    2
     8    20    23    1
     9    23    24   ar
    10    24    25   ar
    11    25    26   ar
    12    26    30    1
    13    30    31    3
    14    26    27   ar
    15    27    28   ar
    16    28    29    1
    17     3     4   ar
    18     4     5   ar
    19     5     6   ar
    20     6     7    1
    21     9    10    1
    22    10    11    2
    23    11    12    1
    24    11    13    1
    25    13    14    1
    26    14    15    1
    27    15    16    1
    28    15     9    1
    29     6     1   ar
    30    28    23   ar
    31    19    22    1
    32    12    17    1
    33    12    18    1
@<TRIPOS>MOLECULE
*****
 31 33 0 0 0
SMALL
GASTEIGER

@<TRIPOS>ATOM
      1 C         142.2130  140.5134  166.9459 C.ar    1  UNL1        0.0555
      2 C         142.0005  141.1654  165.6118 C.ar    1  UNL1        0.0168
      3 C         142.4760  140.4871  164.3614 C.ar    1  UNL1        0.0505
      4 C         143.1640  139.1568  164.4449 C.ar    1  UNL1        0.0170
      5 C         143.3764  138.5047  165.7789 C.ar    1  UNL1        0.0307
      6 C         142.9009  139.1830  167.0294 C.ar    1  UNL1        0.1402
      7 F         143.1133  138.5310  168.3635 F       1  UNL1       -0.2044
      8 C         143.0550  141.8839  168.0095 C.3     1  UNL1        0.0638
      9 C         141.7374  141.1917  168.1965 C.3     1  UNL1        0.2513
     10 N         140.5851  140.2639  167.9491 N.2     1  UNL1       -0.0663
     11 C         139.4148  140.2547  168.8874 C.2     1  UNL1        0.3195
     12 N         138.2624  139.3269  168.6400 N.pl3   1  UNL1       -0.2480
     13 C         139.3969  141.1735  170.0730 C.3     1  UNL1        0.2611
     14 O         140.5493  142.1013  170.3203 O.3     1  UNL1       -0.3108
     15 C         141.7196  142.1104  169.3821 C.3     1  UNL1        0.3281
     16 F         142.8720  143.0382  169.6294 F       1  UNL1       -0.1989
     17 H         138.2742  138.7239  167.8618 H       1  UNL1        0.2882
     18 H         137.4943  139.3209  169.2558 H       1  UNL1        0.2882
     19 N         142.2636  141.1391  163.0272 N.am    1  UNL1       -0.2791
     20 C         143.3966  141.8548  162.3534 C.2     1  UNL1        0.2695
     21 O         144.7420  141.9185  163.0137 O.2     1  UNL1       -0.2681
     22 H         141.3806  141.0973  162.5939 H       1  UNL1        0.1552
     23 C         143.1842  142.5068  161.0193 C.ar    1  UNL1        0.1621
     24 N         144.0974  142.1853  159.8735 N.ar    1  UNL1       -0.2363
     25 C         143.8850  142.8374  158.5394 C.ar    1  UNL1        0.1094
     26 C         142.7595  143.8109  158.3512 C.ar    1  UNL1        0.0898
     27 C         141.8463  144.1324  159.4969 C.ar    1  UNL1        0.0432
     28 C         142.0587  143.4804  160.8310 C.ar    1  UNL1        0.1628
     29 F         141.1456  143.8019  161.9768 F       1  UNL1       -0.2024
     30 C         142.5471  144.4629  157.0171 C.1     1  UNL1        0.1021
     31 N         142.3347  145.1150  155.6830 N.1     1  UNL1       -0.1908
@<TRIPOS>BOND
     1     9     8    1
     2     9     1    1
     3     1     2   ar
     4     2     3   ar
     5     3    19    1
     6    19    20   am
     7    20    21    2
     8    20    23    1
     9    23    24   ar
    10    24    25   ar
    11    25    26   ar
    12    26    30    1
    13    30    31    3
    14    26    27   ar
    15    27    28   ar
    16    28    29    1
    17     3     4   ar
    18     4     5   ar
    19     5     6   ar
    20     6     7    1
    21     9    10    1
    22    10    11    2
    23    11    12    1
    24    11    13    1
    25    13    14    1
    26    14    15    1
    27    15    16    1
    28    15     9    1
    29     6     1   ar
    30    28    23   ar
    31    19    22    1
    32    12    17    1
    33    12    18    1
@<TRIPOS>MOLECULE
*****
 31 33 0 0 0
SMALL
GASTEIGER

@<TRIPOS>ATOM
      1 C         143.4666  142.0933  164.2330 C.ar    1  UNL1        0.0555
      2 C         143.2018  142.3526  162.7796 C.ar    1  UNL1        0.0168
      3 C         143.3014  143.7471  162.2363 C.ar    1  UNL1        0.0505
      4 C         143.6657  144.8824  163.1465 C.ar    1  UNL1        0.0170
      5 C         143.9305  144.6231  164.5999 C.ar    1  UNL1        0.0307
      6 C         143.8309  143.2285  165.1432 C.ar    1  UNL1        0.1402
      7 F         144.0957  142.9692  166.5968 F       1  UNL1       -0.2044
      8 C         144.8160  140.7246  164.3894 C.3     1  UNL1        0.0638
      9 C         143.3670  140.6986  164.7764 C.3     1  UNL1        0.2513
     10 N         141.9526  141.1570  164.9746 N.2     1  UNL1       -0.0663
     11 C         140.9419  140.2298  165.5818 C.2     1  UNL1        0.3195
     12 N         139.5274  140.6882  165.7800 N.pl3   1  UNL1       -0.2480
     13 C         141.3456  138.8442  165.9908 C.3     1  UNL1        0.2611
     14 O         142.7600  138.3858  165.7926 O.3     1  UNL1       -0.3108
     15 C         143.7707  139.3130  165.1854 C.3     1  UNL1        0.3281
     16 F         145.1852  138.8548  164.9871 F       1  UNL1       -0.1989
     17 H         139.2625  141.5976  165.5116 H       1  UNL1        0.2882
     18 H         138.8640  140.0797  166.1786 H       1  UNL1        0.2882
     19 N         143.0366  144.0065  160.7827 N.am    1  UNL1       -0.2791
     20 C         141.6913  144.5025  160.3423 C.2     1  UNL1        0.2695
     21 O         140.6107  144.7392  161.3555 O.2     1  UNL1       -0.2681
     22 H         143.7459  143.8512  160.1178 H       1  UNL1        0.1552
     23 C         141.4265  144.7619  158.8889 C.ar    1  UNL1        0.1621
     24 N         142.3449  145.6533  158.1066 N.ar    1  UNL1       -0.2363
     25 C         142.0801  145.9126  156.6531 C.ar    1  UNL1        0.1094
     26 C         140.8969  145.2806  155.9819 C.ar    1  UNL1        0.0898
     27 C         139.9784  144.3892  156.7642 C.ar    1  UNL1        0.0432
     28 C         140.2432  144.1298  158.2176 C.ar    1  UNL1        0.1628
     29 F         139.3248  143.2385  158.9999 F       1  UNL1       -0.2024
     30 C         140.6321  145.5400  154.5284 C.1     1  UNL1        0.1021
     31 N         140.3673  145.7994  153.0749 N.1     1  UNL1       -0.1908
@<TRIPOS>BOND
     1     9     8    1
     2     9     1    1
     3     1     2   ar
     4     2     3   ar
     5     3    19    1
     6    19    20   am
     7    20    21    2
     8    20    23    1
     9    23    24   ar
    10    24    25   ar
    11    25    26   ar
    12    26    30    1
    13    30    31    3
    14    26    27   ar
    15    27    28   ar
    16    28    29    1
    17     3     4   ar
    18     4     5   ar
    19     5     6   ar
    20     6     7    1
    21     9    10    1
    22    10    11    2
    23    11    12    1
    24    11    13    1
    25    13    14    1
    26    14    15    1
    27    15    16    1
    28    15     9    1
    29     6     1   ar
    30    28    23   ar
    31    19    22    1
    32    12    17    1
    33    12    18    1
