@<TRIPOS>MOLECULE
*****
 32 36 0 0 0
SMALL
GASTEIGER

@<TRIPOS>ATOM
      1 C         141.3465  138.5931  160.0242 C.ar    1  UNL1        0.1074
      2 C         141.0495  139.5344  158.8948 C.ar    1  UNL1        0.0588
      3 S         141.7363  139.0158  157.6663 S.2     1  UNL1       -0.0508
      4 C         142.4579  137.7539  158.0365 C.ar    1  UNL1        0.1646
      5 N         142.2170  137.4927  159.4937 N.ar    1  UNL1       -0.2224
      6 C         139.5456  140.0513  163.2460 C.ar    1  UNL1        0.2416
      7 N         140.0334  139.9160  161.8340 N.ar    1  UNL1       -0.2089
      8 C         140.8588  138.7284  161.4362 C.ar    1  UNL1        0.1026
      9 C         141.1965  137.6760  162.4505 C.ar    1  UNL1        0.0224
     10 C         140.7088  137.8113  163.8625 C.ar    1  UNL1        0.0239
     11 C         139.8834  138.9989  164.2603 C.ar    1  UNL1        0.1189
     12 N         139.3956  139.1343  165.6723 N.ar    1  UNL1       -0.2826
     13 C         138.1565  138.5087  166.2408 C.ar    1  UNL1        0.1826
     14 N         138.0565  138.9067  167.6836 N.ar    1  UNL1       -0.2280
     15 C         139.2337  139.7782  168.0067 C.ar    1  UNL1        0.0786
     16 C         139.5312  140.4000  169.3391 C.3     1  UNL1        0.0538
     17 C         140.0614  139.9189  166.7637 C.ar    1  UNL1        0.0963
     18 C         137.3235  141.3913  163.1185 C.3     1  UNL1        0.2543
     19 O         138.7202  141.2389  163.6439 O.3     1  UNL1       -0.4551
     20 N         143.2766  136.9027  157.1117 N.pl3   1  UNL1       -0.2786
     21 H         144.1757  137.1965  156.8388 H       1  UNL1        0.1555
     22 C         142.7253  135.6038  156.6027 C.ar    1  UNL1        0.1276
     23 C         143.2462  134.2360  156.9307 C.ar    1  UNL1        0.0244
     24 C         142.3992  133.2315  156.2071 C.ar    1  UNL1        0.0773
     25 N         141.3548  133.9786  155.4318 N.ar    1  UNL1       -0.1728
     26 N         141.5563  135.4448  155.6762 N.ar    1  UNL1       -0.2354
     27 C         142.9202  131.8636  156.5351 C.3     1  UNL1        0.0477
     28 C         144.0891  132.0227  157.4615 C.3     1  UNL1        0.0112
     29 C         144.2907  133.4889  157.7060 C.3     1  UNL1        0.0308
     30 C         140.7334  136.5566  155.0962 C.3     1  UNL1        0.1668
     31 C         139.3466  136.8095  155.6090 C.3     1  UNL1        0.2195
     32 F         138.2924  137.3464  154.6869 F       1  UNL1       -0.2321
@<TRIPOS>BOND
     1    18    19    1
     2    19     6    1
     3     6     7   ar
     4     7     8   ar
     5     8     1    1
     6     1     2   ar
     7     2     3   ar
     8     3     4   ar
     9     4    20    1
    10    20    22    1
    11    22    23   ar
    12    23    24   ar
    13    24    25   ar
    14    25    26   ar
    15    26    30    1
    16    30    31    1
    17    31    32    1
    18    24    27    1
    19    27    28    1
    20    28    29    1
    21     4     5   ar
    22     8     9   ar
    23     9    10   ar
    24    10    11   ar
    25    11    12    1
    26    12    13   ar
    27    13    14   ar
    28    14    15   ar
    29    15    16    1
    30    15    17   ar
    31    11     6   ar
    32    17    12   ar
    33     5     1   ar
    34    26    22   ar
    35    29    23    1
    36    20    21    1
@<TRIPOS>MOLECULE
*****
 32 36 0 0 0
SMALL
GASTEIGER

@<TRIPOS>ATOM
      1 C         138.0167  141.0868  159.8202 C.ar    1  UNL1        0.1074
      2 C         138.4584  142.3272  159.1017 C.ar    1  UNL1        0.0588
      3 S         138.0854  142.1831  157.6560 S.2     1  UNL1       -0.0508
      4 C         137.4132  140.8536  157.4811 C.ar    1  UNL1        0.1646
      5 N         137.3708  140.1761  158.8186 N.ar    1  UNL1       -0.2224
      6 C         138.5396  141.6606  163.7122 C.ar    1  UNL1        0.2416
      7 N         138.3658  141.9410  162.2489 N.ar    1  UNL1       -0.2089
      8 C         138.1905  140.8064  161.2835 C.ar    1  UNL1        0.1026
      9 C         138.1891  139.3914  161.7814 C.ar    1  UNL1        0.0224
     10 C         138.3629  139.1110  163.2446 C.ar    1  UNL1        0.0239
     11 C         138.5381  140.2455  164.2101 C.ar    1  UNL1        0.1189
     12 N         138.7119  139.9651  165.6733 N.ar    1  UNL1       -0.2826
     13 C         137.8581  139.0534  166.5038 C.ar    1  UNL1        0.1826
     14 N         138.3885  139.0720  167.9067 N.ar    1  UNL1       -0.2280
     15 C         139.5702  139.9952  167.9433 C.ar    1  UNL1        0.0786
     16 C         140.4055  140.3110  169.1486 C.3     1  UNL1        0.0538
     17 C         139.7701  140.5471  166.5630 C.ar    1  UNL1        0.0963
     18 C         137.7706  143.9600  164.6452 C.3     1  UNL1        0.2543
     19 O         138.7149  142.7951  164.6776 O.3     1  UNL1       -0.4551
     20 N         136.8774  140.2990  156.1944 N.pl3   1  UNL1       -0.2786
     21 H         137.4374  139.7061  155.6429 H       1  UNL1        0.1555
     22 C         135.4884  140.6476  155.7481 C.ar    1  UNL1        0.1276
     23 C         134.2150  140.2313  156.4227 C.ar    1  UNL1        0.0244
     24 C         133.0686  140.8002  155.6404 C.ar    1  UNL1        0.0773
     25 N         133.6334  141.5681  154.4823 N.ar    1  UNL1       -0.1728
     26 N         135.1290  141.4739  154.5488 N.ar    1  UNL1       -0.2354
     27 C         131.7951  140.3838  156.3149 C.3     1  UNL1        0.0477
     28 C         132.1546  139.5576  157.5142 C.3     1  UNL1        0.0112
     29 C         133.6502  139.4633  157.5808 C.3     1  UNL1        0.0308
     30 C         136.0954  142.0964  153.5854 C.3     1  UNL1        0.1668
     31 C         136.5827  143.4970  153.8115 C.3     1  UNL1        0.2195
     32 F         136.6110  144.0665  155.1988 F       1  UNL1       -0.2321
@<TRIPOS>BOND
     1    18    19    1
     2    19     6    1
     3     6     7   ar
     4     7     8   ar
     5     8     1    1
     6     1     2   ar
     7     2     3   ar
     8     3     4   ar
     9     4    20    1
    10    20    22    1
    11    22    23   ar
    12    23    24   ar
    13    24    25   ar
    14    25    26   ar
    15    26    30    1
    16    30    31    1
    17    31    32    1
    18    24    27    1
    19    27    28    1
    20    28    29    1
    21     4     5   ar
    22     8     9   ar
    23     9    10   ar
    24    10    11   ar
    25    11    12    1
    26    12    13   ar
    27    13    14   ar
    28    14    15   ar
    29    15    16    1
    30    15    17   ar
    31    11     6   ar
    32    17    12   ar
    33     5     1   ar
    34    26    22   ar
    35    29    23    1
    36    20    21    1
@<TRIPOS>MOLECULE
*****
 32 36 0 0 0
SMALL
GASTEIGER

@<TRIPOS>ATOM
      1 C         142.3859  137.9151  159.3282 C.ar    1  UNL1        0.1074
      2 C         141.4235  138.5628  158.3775 C.ar    1  UNL1        0.0588
      3 S         141.7203  138.0529  156.9984 S.2     1  UNL1       -0.0508
      4 C         142.8662  137.0900  157.0969 C.ar    1  UNL1        0.1646
      5 N         143.2776  137.0048  158.5368 N.ar    1  UNL1       -0.2224
      6 C         141.3968  137.8655  163.1713 C.ar    1  UNL1        0.2416
      7 N         141.3366  137.6422  161.6893 N.ar    1  UNL1       -0.2089
      8 C         142.4462  138.1384  160.8103 C.ar    1  UNL1        0.1026
      9 C         143.6161  138.8579  161.4135 C.ar    1  UNL1        0.0224
     10 C         143.6763  139.0812  162.8955 C.ar    1  UNL1        0.0239
     11 C         142.5667  138.5850  163.7745 C.ar    1  UNL1        0.1189
     12 N         142.6270  138.8083  165.2565 N.ar    1  UNL1       -0.2826
     13 C         143.6144  138.1908  166.2017 C.ar    1  UNL1        0.1826
     14 N         143.3081  138.6891  167.5829 N.ar    1  UNL1       -0.2280
     15 C         142.1313  139.6147  167.4913 C.ar    1  UNL1        0.0786
     16 C         141.4882  140.3394  168.6365 C.3     1  UNL1        0.0538
     17 C         141.7103  139.6883  166.0535 C.ar    1  UNL1        0.0963
     18 C         138.8602  137.6665  163.6965 C.3     1  UNL1        0.2543
     19 O         140.2872  137.3693  164.0503 O.3     1  UNL1       -0.4551
     20 N         143.4910  136.3433  155.9558 N.pl3   1  UNL1       -0.2786
     21 H         144.2552  136.7327  155.4723 H       1  UNL1        0.1555
     22 C         142.9516  135.0034  155.5512 C.ar    1  UNL1        0.1276
     23 C         142.2348  134.6914  154.2710 C.ar    1  UNL1        0.0244
     24 C         141.8744  133.2354  154.2845 C.ar    1  UNL1        0.0773
     25 N         142.3684  132.6475  155.5730 N.ar    1  UNL1       -0.1728
     26 N         143.0341  133.7402  156.3560 N.ar    1  UNL1       -0.2354
     27 C         141.1576  132.9234  153.0043 C.3     1  UNL1        0.0477
     28 C         141.0751  134.1866  152.1996 C.3     1  UNL1        0.0112
     29 C         141.7408  135.2793  152.9825 C.3     1  UNL1        0.0308
     30 C         143.6706  133.5951  157.7064 C.3     1  UNL1        0.1668
     31 C         144.8899  132.7373  157.8727 C.3     1  UNL1        0.2195
     32 F         145.4824  132.0378  156.6855 F       1  UNL1       -0.2321
@<TRIPOS>BOND
     1    18    19    1
     2    19     6    1
     3     6     7   ar
     4     7     8   ar
     5     8     1    1
     6     1     2   ar
     7     2     3   ar
     8     3     4   ar
     9     4    20    1
    10    20    22    1
    11    22    23   ar
    12    23    24   ar
    13    24    25   ar
    14    25    26   ar
    15    26    30    1
    16    30    31    1
    17    31    32    1
    18    24    27    1
    19    27    28    1
    20    28    29    1
    21     4     5   ar
    22     8     9   ar
    23     9    10   ar
    24    10    11   ar
    25    11    12    1
    26    12    13   ar
    27    13    14   ar
    28    14    15   ar
    29    15    16    1
    30    15    17   ar
    31    11     6   ar
    32    17    12   ar
    33     5     1   ar
    34    26    22   ar
    35    29    23    1
    36    20    21    1
@<TRIPOS>MOLECULE
*****
 32 36 0 0 0
SMALL
GASTEIGER

@<TRIPOS>ATOM
      1 C         141.1073  138.3557  160.1284 C.ar    1  UNL1        0.1074
      2 C         140.3825  138.8384  158.9071 C.ar    1  UNL1        0.0588
      3 S         141.1817  138.4345  157.7038 S.2     1  UNL1       -0.0508
      4 C         142.4006  137.7022  158.1814 C.ar    1  UNL1        0.1646
      5 N         142.3546  137.6535  159.6798 N.ar    1  UNL1       -0.2224
      6 C         139.2427  139.8152  163.3132 C.ar    1  UNL1        0.2416
      7 N         139.6871  139.6285  161.8927 N.ar    1  UNL1       -0.2089
      8 C         140.6630  138.5425  161.5488 C.ar    1  UNL1        0.1026
      9 C         141.1945  137.6432  162.6253 C.ar    1  UNL1        0.0224
     10 C         140.7501  137.8299  164.0458 C.ar    1  UNL1        0.0239
     11 C         139.7742  138.9159  164.3897 C.ar    1  UNL1        0.1189
     12 N         139.3299  139.1026  165.8102 N.ar    1  UNL1       -0.2826
     13 C         138.0711  138.5594  166.4188 C.ar    1  UNL1        0.1826
     14 N         138.0295  138.9864  167.8561 N.ar    1  UNL1       -0.2280
     15 C         139.2626  139.7935  168.1358 C.ar    1  UNL1        0.0786
     16 C         139.6278  140.4190  169.4493 C.3     1  UNL1        0.0538
     17 C         140.0662  139.8653  166.8713 C.ar    1  UNL1        0.0963
     18 C         138.5584  142.3211  163.2716 C.3     1  UNL1        0.2543
     19 O         138.2668  140.9012  163.6571 O.3     1  UNL1       -0.4551
     20 N         143.4766  137.1207  157.3129 N.pl3   1  UNL1       -0.2786
     21 H         144.3989  137.4585  157.3792 H       1  UNL1        0.1555
     22 C         143.1472  136.0245  156.3435 C.ar    1  UNL1        0.1276
     23 C         142.6270  136.2079  154.9486 C.ar    1  UNL1        0.0244
     24 C         142.4384  134.8491  154.3417 C.ar    1  UNL1        0.0773
     25 N         142.8421  133.8259  155.3615 N.ar    1  UNL1       -0.1728
     26 N         143.2802  134.5523  156.5987 N.ar    1  UNL1       -0.2354
     27 C         141.9183  135.0326  152.9468 C.3     1  UNL1        0.0477
     28 C         141.7853  136.5047  152.6916 C.3     1  UNL1        0.0112
     29 C         142.2233  137.2311  153.9287 C.3     1  UNL1        0.0308
     30 C         143.7658  133.9179  157.8682 C.3     1  UNL1        0.1668
     31 C         144.7252  132.7661  157.8118 C.3     1  UNL1        0.2195
     32 F         145.9493  132.7665  158.6785 F       1  UNL1       -0.2321
@<TRIPOS>BOND
     1    18    19    1
     2    19     6    1
     3     6     7   ar
     4     7     8   ar
     5     8     1    1
     6     1     2   ar
     7     2     3   ar
     8     3     4   ar
     9     4    20    1
    10    20    22    1
    11    22    23   ar
    12    23    24   ar
    13    24    25   ar
    14    25    26   ar
    15    26    30    1
    16    30    31    1
    17    31    32    1
    18    24    27    1
    19    27    28    1
    20    28    29    1
    21     4     5   ar
    22     8     9   ar
    23     9    10   ar
    24    10    11   ar
    25    11    12    1
    26    12    13   ar
    27    13    14   ar
    28    14    15   ar
    29    15    16    1
    30    15    17   ar
    31    11     6   ar
    32    17    12   ar
    33     5     1   ar
    34    26    22   ar
    35    29    23    1
    36    20    21    1
@<TRIPOS>MOLECULE
*****
 32 36 0 0 0
SMALL
GASTEIGER

@<TRIPOS>ATOM
      1 C         141.5997  142.8090  163.3893 C.ar    1  UNL1        0.1074
      2 C         142.8189  142.0019  163.7239 C.ar    1  UNL1        0.0588
      3 S         142.8046  141.7307  165.1991 S.2     1  UNL1       -0.0508
      4 C         141.5766  142.3701  165.7761 C.ar    1  UNL1        0.1646
      5 N         140.8319  143.0366  164.6576 N.ar    1  UNL1       -0.2224
      6 C         139.5525  143.3319  160.0298 C.ar    1  UNL1        0.2416
      7 N         139.9365  142.8390  161.3935 N.ar    1  UNL1       -0.2089
      8 C         141.2156  143.3019  162.0256 C.ar    1  UNL1        0.1026
      9 C         142.1107  144.2579  161.2941 C.ar    1  UNL1        0.0224
     10 C         141.7267  144.7509  159.9305 C.ar    1  UNL1        0.0239
     11 C         140.4476  144.2879  159.2983 C.ar    1  UNL1        0.1189
     12 N         140.0636  144.7809  157.9347 N.ar    1  UNL1       -0.2826
     13 C         139.6956  143.9250  156.7591 C.ar    1  UNL1        0.1826
     14 N         139.3847  144.8314  155.6051 N.ar    1  UNL1       -0.2280
     15 C         139.5606  146.2475  156.0675 C.ar    1  UNL1        0.0786
     16 C         139.3532  147.4787  155.2361 C.3     1  UNL1        0.0538
     17 C         139.9801  146.2162  157.5072 C.ar    1  UNL1        0.0963
     18 C         138.1308  141.4445  158.9501 C.3     1  UNL1        0.2543
     19 O         138.2734  142.8690  159.3977 O.3     1  UNL1       -0.4551
     20 N         141.1654  142.3472  167.2186 N.pl3   1  UNL1       -0.2786
     21 H         141.5200  143.0213  167.8423 H       1  UNL1        0.1555
     22 C         140.2138  141.2972  167.7106 C.ar    1  UNL1        0.1276
     23 C         139.4526  140.3272  166.8564 C.ar    1  UNL1        0.0244
     24 C         138.6248  139.4634  167.7610 C.ar    1  UNL1        0.0773
     25 N         138.8743  139.8994  169.1744 N.ar    1  UNL1       -0.1728
     26 N         139.8565  141.0328  169.1433 N.ar    1  UNL1       -0.2354
     27 C         137.8635  138.4934  166.9068 C.3     1  UNL1        0.0477
     28 C         138.2209  138.7578  165.4742 C.3     1  UNL1        0.0112
     29 C         139.2030  139.8912  165.4430 C.3     1  UNL1        0.0308
     30 C         140.3878  141.7720  170.3353 C.3     1  UNL1        0.1668
     31 C         139.9588  143.1860  170.5935 C.3     1  UNL1        0.2195
     32 F         140.2663  144.2581  169.5906 F       1  UNL1       -0.2321
@<TRIPOS>BOND
     1    18    19    1
     2    19     6    1
     3     6     7   ar
     4     7     8   ar
     5     8     1    1
     6     1     2   ar
     7     2     3   ar
     8     3     4   ar
     9     4    20    1
    10    20    22    1
    11    22    23   ar
    12    23    24   ar
    13    24    25   ar
    14    25    26   ar
    15    26    30    1
    16    30    31    1
    17    31    32    1
    18    24    27    1
    19    27    28    1
    20    28    29    1
    21     4     5   ar
    22     8     9   ar
    23     9    10   ar
    24    10    11   ar
    25    11    12    1
    26    12    13   ar
    27    13    14   ar
    28    14    15   ar
    29    15    16    1
    30    15    17   ar
    31    11     6   ar
    32    17    12   ar
    33     5     1   ar
    34    26    22   ar
    35    29    23    1
    36    20    21    1
@<TRIPOS>MOLECULE
*****
 32 36 0 0 0
SMALL
GASTEIGER

@<TRIPOS>ATOM
      1 C         142.3895  138.1616  158.3801 C.ar    1  UNL1        0.1074
      2 C         142.5146  139.1791  157.2851 C.ar    1  UNL1        0.0588
      3 S         143.1422  138.5089  156.0990 S.2     1  UNL1       -0.0508
      4 C         143.4050  137.0771  156.4610 C.ar    1  UNL1        0.1646
      5 N         142.9398  136.8625  157.8707 N.ar    1  UNL1       -0.2224
      6 C         140.0385  139.5232  161.2730 C.ar    1  UNL1        0.2416
      7 N         140.6131  139.2836  159.9083 N.ar    1  UNL1       -0.2089
      8 C         141.8149  138.4011  159.7448 C.ar    1  UNL1        0.1026
      9 C         142.4422  137.7581  160.9461 C.ar    1  UNL1        0.0224
     10 C         141.8677  137.9976  162.3109 C.ar    1  UNL1        0.0239
     11 C         140.6658  138.8802  162.4743 C.ar    1  UNL1        0.1189
     12 N         140.0913  139.1197  163.8391 N.ar    1  UNL1       -0.2826
     13 C         140.5097  140.1971  164.7951 C.ar    1  UNL1        0.1826
     14 N         139.6745  140.0671  166.0343 N.ar    1  UNL1       -0.2280
     15 C         138.7399  138.9094  165.8440 C.ar    1  UNL1        0.0786
     16 C         137.7257  138.4227  166.8363 C.3     1  UNL1        0.0538
     17 C         138.9975  138.3239  164.4873 C.ar    1  UNL1        0.0963
     18 C         137.4814  139.9107  161.0263 C.3     1  UNL1        0.2543
     19 O         138.8367  140.4057  161.4365 O.3     1  UNL1       -0.4551
     20 N         144.0243  136.0417  155.5696 N.pl3   1  UNL1       -0.2786
     21 H         144.8743  136.2320  155.1108 H       1  UNL1        0.1555
     22 C         143.3485  134.7164  155.3774 C.ar    1  UNL1        0.1276
     23 C         142.4661  134.3355  154.2257 C.ar    1  UNL1        0.0244
     24 C         142.0087  132.9231  154.4396 C.ar    1  UNL1        0.0773
     25 N         142.6083  132.4310  155.7235 N.ar    1  UNL1       -0.1728
     26 N         143.4364  133.5394  156.3031 N.ar    1  UNL1       -0.2354
     27 C         141.1263  132.5421  153.2879 C.3     1  UNL1        0.0477
     28 C         141.0384  133.7192  152.3623 C.3     1  UNL1        0.0112
     29 C         141.8665  134.8275  152.9418 C.3     1  UNL1        0.0308
     30 C         144.2155  133.4810  157.5835 C.3     1  UNL1        0.1668
     31 C         145.0370  132.2682  157.9070 C.3     1  UNL1        0.2195
     32 F         146.3483  132.4189  158.6193 F       1  UNL1       -0.2321
@<TRIPOS>BOND
     1    18    19    1
     2    19     6    1
     3     6     7   ar
     4     7     8   ar
     5     8     1    1
     6     1     2   ar
     7     2     3   ar
     8     3     4   ar
     9     4    20    1
    10    20    22    1
    11    22    23   ar
    12    23    24   ar
    13    24    25   ar
    14    25    26   ar
    15    26    30    1
    16    30    31    1
    17    31    32    1
    18    24    27    1
    19    27    28    1
    20    28    29    1
    21     4     5   ar
    22     8     9   ar
    23     9    10   ar
    24    10    11   ar
    25    11    12    1
    26    12    13   ar
    27    13    14   ar
    28    14    15   ar
    29    15    16    1
    30    15    17   ar
    31    11     6   ar
    32    17    12   ar
    33     5     1   ar
    34    26    22   ar
    35    29    23    1
    36    20    21    1
@<TRIPOS>MOLECULE
*****
 32 36 0 0 0
SMALL
GASTEIGER

@<TRIPOS>ATOM
      1 C         142.0252  138.3694  160.2886 C.ar    1  UNL1        0.1074
      2 C         141.0281  138.9634  159.3384 C.ar    1  UNL1        0.0588
      3 S         141.3714  138.4968  157.9548 S.2     1  UNL1       -0.0508
      4 C         142.5806  137.6144  158.0499 C.ar    1  UNL1        0.1646
      5 N         142.9847  137.5357  159.4922 N.ar    1  UNL1       -0.2224
      6 C         142.7689  139.9833  163.8371 C.ar    1  UNL1        0.2416
      7 N         142.7369  139.7794  162.3514 N.ar    1  UNL1       -0.2089
      8 C         142.0571  138.5732  161.7743 C.ar    1  UNL1        0.1026
      9 C         141.4093  137.5709  162.6831 C.ar    1  UNL1        0.0224
     10 C         141.4412  137.7747  164.1688 C.ar    1  UNL1        0.0239
     11 C         142.1210  138.9809  164.7459 C.ar    1  UNL1        0.1189
     12 N         142.1530  139.1848  166.2316 N.ar    1  UNL1       -0.2826
     13 C         143.2466  138.7438  167.1587 C.ar    1  UNL1        0.1826
     14 N         142.8664  139.1519  168.5511 N.ar    1  UNL1       -0.2280
     15 C         141.5379  139.8451  168.4846 C.ar    1  UNL1        0.0786
     16 C         140.7828  140.4175  169.6475 C.3     1  UNL1        0.0538
     17 C         141.0970  139.8654  167.0511 C.ar    1  UNL1        0.0963
     18 C         144.9095  141.4188  164.1632 C.3     1  UNL1        0.2543
     19 O         143.4486  141.1895  164.4142 O.3     1  UNL1       -0.4551
     20 N         143.2656  136.9308  156.9037 N.pl3   1  UNL1       -0.2786
     21 H         144.0846  137.3178  156.5181 H       1  UNL1        0.1555
     22 C         142.7027  135.6576  156.3452 C.ar    1  UNL1        0.1276
     23 C         143.1092  134.2676  156.7362 C.ar    1  UNL1        0.0244
     24 C         142.2922  133.3017  155.9303 C.ar    1  UNL1        0.0773
     25 N         141.3807  134.0947  155.0411 N.ar    1  UNL1       -0.1728
     26 N         141.6344  135.5507  155.2976 N.ar    1  UNL1       -0.2354
     27 C         142.6986  131.9118  156.3212 C.3     1  UNL1        0.0477
     28 C         143.7668  132.0187  157.3688 C.3     1  UNL1        0.0112
     29 C         144.0206  133.4747  157.6253 C.3     1  UNL1        0.0308
     30 C         140.9416  136.6983  154.6246 C.3     1  UNL1        0.1668
     31 C         139.4541  136.8508  154.7443 C.3     1  UNL1        0.2195
     32 F         138.8023  136.8106  156.0945 F       1  UNL1       -0.2321
@<TRIPOS>BOND
     1    18    19    1
     2    19     6    1
     3     6     7   ar
     4     7     8   ar
     5     8     1    1
     6     1     2   ar
     7     2     3   ar
     8     3     4   ar
     9     4    20    1
    10    20    22    1
    11    22    23   ar
    12    23    24   ar
    13    24    25   ar
    14    25    26   ar
    15    26    30    1
    16    30    31    1
    17    31    32    1
    18    24    27    1
    19    27    28    1
    20    28    29    1
    21     4     5   ar
    22     8     9   ar
    23     9    10   ar
    24    10    11   ar
    25    11    12    1
    26    12    13   ar
    27    13    14   ar
    28    14    15   ar
    29    15    16    1
    30    15    17   ar
    31    11     6   ar
    32    17    12   ar
    33     5     1   ar
    34    26    22   ar
    35    29    23    1
    36    20    21    1
@<TRIPOS>MOLECULE
*****
 32 36 0 0 0
SMALL
GASTEIGER

@<TRIPOS>ATOM
      1 C         141.8437  142.1809  158.5339 C.ar    1  UNL1        0.1074
      2 C         141.5682  143.3561  157.6435 C.ar    1  UNL1        0.0588
      3 S         141.5525  144.5900  158.4962 S.2     1  UNL1       -0.0508
      4 C         141.8185  144.1774  159.9136 C.ar    1  UNL1        0.1646
      5 N         141.9984  142.6885  159.9368 N.ar    1  UNL1       -0.2224
      6 C         143.2118  138.8700  156.8261 C.ar    1  UNL1        0.2416
      7 N         143.1090  140.3015  157.2622 N.ar    1  UNL1       -0.2089
      8 C         141.9466  140.7494  158.0978 C.ar    1  UNL1        0.1026
      9 C         140.8870  139.7656  158.4973 C.ar    1  UNL1        0.0224
     10 C         140.9898  138.3341  158.0612 C.ar    1  UNL1        0.0239
     11 C         142.1522  137.8863  157.2256 C.ar    1  UNL1        0.1189
     12 N         142.2551  136.4548  156.7895 N.ar    1  UNL1       -0.2826
     13 C         143.1915  135.4269  157.3520 C.ar    1  UNL1        0.1826
     14 N         142.9547  134.1367  156.6245 N.ar    1  UNL1       -0.2280
     15 C         141.8719  134.3672  155.6124 C.ar    1  UNL1        0.0786
     16 C         141.3185  133.3445  154.6647 C.3     1  UNL1        0.0538
     17 C         141.4395  135.7998  155.7144 C.ar    1  UNL1        0.0963
     18 C         145.2005  139.4330  155.2519 C.3     1  UNL1        0.2543
     19 O         144.3743  138.4222  155.9905 O.3     1  UNL1       -0.4551
     20 N         141.8916  145.0929  161.0996 N.pl3   1  UNL1       -0.2786
     21 H         142.0260  146.0593  160.9679 H       1  UNL1        0.1555
     22 C         141.7599  144.5361  162.4862 C.ar    1  UNL1        0.1276
     23 C         142.8526  143.8877  163.2834 C.ar    1  UNL1        0.0244
     24 C         142.2805  143.4808  164.6089 C.ar    1  UNL1        0.0773
     25 N         140.8341  143.8776  164.6309 N.ar    1  UNL1       -0.1728
     26 N         140.5123  144.5299  163.3190 N.ar    1  UNL1       -0.2354
     27 C         143.3732  142.8324  165.4061 C.3     1  UNL1        0.0477
     28 C         144.6207  142.8387  164.5733 C.3     1  UNL1        0.0112
     29 C         144.2990  143.4909  163.2613 C.3     1  UNL1        0.0308
     30 C         139.1775  145.0793  162.9115 C.3     1  UNL1        0.1668
     31 C         137.9302  144.2862  163.1669 C.3     1  UNL1        0.2195
     32 F         137.5272  143.9542  164.5731 F       1  UNL1       -0.2321
@<TRIPOS>BOND
     1    18    19    1
     2    19     6    1
     3     6     7   ar
     4     7     8   ar
     5     8     1    1
     6     1     2   ar
     7     2     3   ar
     8     3     4   ar
     9     4    20    1
    10    20    22    1
    11    22    23   ar
    12    23    24   ar
    13    24    25   ar
    14    25    26   ar
    15    26    30    1
    16    30    31    1
    17    31    32    1
    18    24    27    1
    19    27    28    1
    20    28    29    1
    21     4     5   ar
    22     8     9   ar
    23     9    10   ar
    24    10    11   ar
    25    11    12    1
    26    12    13   ar
    27    13    14   ar
    28    14    15   ar
    29    15    16    1
    30    15    17   ar
    31    11     6   ar
    32    17    12   ar
    33     5     1   ar
    34    26    22   ar
    35    29    23    1
    36    20    21    1
@<TRIPOS>MOLECULE
*****
 32 36 0 0 0
SMALL
GASTEIGER

@<TRIPOS>ATOM
      1 C         141.7573  138.2131  159.2120 C.ar    1  UNL1        0.1074
      2 C         140.8079  138.3337  158.0570 C.ar    1  UNL1        0.0588
      3 S         141.4431  137.6817  156.8648 S.2     1  UNL1       -0.0508
      4 C         142.7851  137.1582  157.2830 C.ar    1  UNL1        0.1646
      5 N         142.9793  137.4866  158.7336 N.ar    1  UNL1       -0.2224
      6 C         142.2425  138.8800  163.0939 C.ar    1  UNL1        0.2416
      7 N         142.4744  138.3646  161.7045 N.ar    1  UNL1       -0.2089
      8 C         141.5254  138.7286  160.6014 C.ar    1  UNL1        0.1026
      9 C         140.3444  139.6082  160.8877 C.ar    1  UNL1        0.0224
     10 C         140.1125  140.1236  162.2771 C.ar    1  UNL1        0.0239
     11 C         141.0615  139.7596  163.3803 C.ar    1  UNL1        0.1189
     12 N         140.8297  140.2751  164.7697 N.ar    1  UNL1       -0.2826
     13 C         141.2462  141.6177  165.2929 C.ar    1  UNL1        0.1826
     14 N         140.8145  141.7108  166.7264 N.ar    1  UNL1       -0.2280
     15 C         140.1311  140.4257  167.0891 C.ar    1  UNL1        0.0786
     16 C         139.5418  140.0874  168.4264 C.3     1  UNL1        0.0538
     17 C         140.1405  139.5384  165.8798 C.ar    1  UNL1        0.0963
     18 C         144.3975  139.3681  164.4605 C.3     1  UNL1        0.2543
     19 O         143.1915  138.5160  164.1971 O.3     1  UNL1       -0.4551
     20 N         143.7616  136.4334  156.4048 N.pl3   1  UNL1       -0.2786
     21 H         144.6416  136.8314  156.2139 H       1  UNL1        0.1555
     22 C         143.3973  135.1022  155.8173 C.ar    1  UNL1        0.1276
     23 C         142.7165  134.8763  154.4999 C.ar    1  UNL1        0.0244
     24 C         142.5482  133.3976  154.3125 C.ar    1  UNL1        0.0773
     25 N         143.1250  132.7095  155.5141 N.ar    1  UNL1       -0.1728
     26 N         143.6498  133.7630  156.4442 N.ar    1  UNL1       -0.2354
     27 C         141.8675  133.1718  152.9951 C.3     1  UNL1        0.0477
     28 C         141.6150  134.5110  152.3683 C.3     1  UNL1        0.0112
     29 C         142.1397  135.5644  153.2983 C.3     1  UNL1        0.0308
     30 C         144.3109  133.5199  157.7684 C.3     1  UNL1        0.1668
     31 C         145.1956  132.3233  157.9567 C.3     1  UNL1        0.2195
     32 F         144.5896  130.9746  158.2084 F       1  UNL1       -0.2321
@<TRIPOS>BOND
     1    18    19    1
     2    19     6    1
     3     6     7   ar
     4     7     8   ar
     5     8     1    1
     6     1     2   ar
     7     2     3   ar
     8     3     4   ar
     9     4    20    1
    10    20    22    1
    11    22    23   ar
    12    23    24   ar
    13    24    25   ar
    14    25    26   ar
    15    26    30    1
    16    30    31    1
    17    31    32    1
    18    24    27    1
    19    27    28    1
    20    28    29    1
    21     4     5   ar
    22     8     9   ar
    23     9    10   ar
    24    10    11   ar
    25    11    12    1
    26    12    13   ar
    27    13    14   ar
    28    14    15   ar
    29    15    16    1
    30    15    17   ar
    31    11     6   ar
    32    17    12   ar
    33     5     1   ar
    34    26    22   ar
    35    29    23    1
    36    20    21    1
