@<TRIPOS>MOLECULE
*****
 37 40 0 0 0
SMALL
GASTEIGER

@<TRIPOS>ATOM
      1 N         140.6483  140.1282  164.1958 N.ar    1  UNL1       -0.1967
      2 N         140.9082  141.3515  165.0241 N.ar    1  UNL1       -0.1666
      3 C         140.1218  141.2262  166.2953 C.ar    1  UNL1        0.0850
      4 C         139.3760  139.9255  166.2527 C.ar    1  UNL1        0.0334
      5 C         138.4426  139.2713  167.2278 C.ar    1  UNL1        0.0027
      6 C         137.8345  137.9386  166.9053 C.ar    1  UNL1        0.0001
      7 C         138.1599  137.2600  165.6077 C.ar    1  UNL1        0.0015
      8 C         139.0933  137.9142  164.6327 C.ar    1  UNL1        0.0193
      9 C         139.7013  139.2469  164.9551 C.ar    1  UNL1        0.0870
     10 C         142.4014  139.2555  160.1443 C.ar    1  UNL1        0.1194
     11 C         143.1766  138.9224  161.3845 C.ar    1  UNL1        0.1452
     12 N         144.5361  138.2984  161.2742 N.pl3   1  UNL1       -0.3415
     13 N         142.5922  139.2133  162.7350 N.ar    1  UNL1       -0.1940
     14 C         141.2327  139.8373  162.8453 C.ar    1  UNL1        0.2554
     15 N         140.4575  140.1705  161.6050 N.ar    1  UNL1       -0.1940
     16 C         141.0419  139.8796  160.2546 C.ar    1  UNL1        0.1452
     17 N         140.2667  140.2127  159.0144 N.pl3   1  UNL1       -0.3415
     18 H         144.9197  138.1074  160.3878 H       1  UNL1        0.1438
     19 H         145.0449  138.0797  162.0882 H       1  UNL1        0.1438
     20 H         139.3744  140.6223  159.0868 H       1  UNL1        0.1438
     21 H         140.6502  140.0218  158.1280 H       1  UNL1        0.1438
     22 C         143.8529  139.9842  158.1164 C.2     1  UNL1        0.4090
     23 O         144.1354  141.2945  158.7895 O.2     1  UNL1       -0.2258
     24 N         142.9859  138.9646  158.7938 N.am    1  UNL1       -0.2181
     25 C         142.7033  137.6543  158.1207 C.3     1  UNL1        0.1237
     26 C         145.4416  140.6318  156.1653 C.3     1  UNL1        0.2574
     27 O         144.4373  139.6933  156.7659 O.3     1  UNL1       -0.4302
     28 C         140.0874  142.2261  167.4129 C.3     1  UNL1        0.0785
     29 C         140.8750  141.9784  168.6654 C.ar    1  UNL1        0.0410
     30 C         140.1864  141.4652  169.8952 C.ar    1  UNL1        0.1388
     31 F         138.7102  141.1996  169.8726 F       1  UNL1       -0.2044
     32 C         140.9739  141.2175  171.1476 C.ar    1  UNL1        0.0318
     33 C         142.4500  141.4831  171.1701 C.ar    1  UNL1        0.0342
     34 C         143.1386  141.9963  169.9403 C.ar    1  UNL1        0.1672
     35 F         144.6147  142.2619  169.9629 F       1  UNL1       -0.2018
     36 C         142.3511  142.2440  168.6879 C.ar    1  UNL1        0.1659
     37 F         143.0397  142.7572  167.4581 F       1  UNL1       -0.2020
@<TRIPOS>BOND
     1    26    27    1
     2    27    22    1
     3    22    23    2
     4    22    24   am
     5    24    25    1
     6    24    10    1
     7    10    11   ar
     8    11    12    1
     9    11    13   ar
    10    13    14   ar
    11    14     1    1
    12     1     2   ar
    13     2     3   ar
    14     3    28    1
    15    28    29    1
    16    29    30   ar
    17    30    31    1
    18    30    32   ar
    19    32    33   ar
    20    33    34   ar
    21    34    35    1
    22    34    36   ar
    23    36    37    1
    24     3     4   ar
    25     4     5   ar
    26     5     6   ar
    27     6     7   ar
    28     7     8   ar
    29     8     9   ar
    30    14    15   ar
    31    15    16   ar
    32    16    17    1
    33    16    10   ar
    34     9     1   ar
    35    36    29   ar
    36     9     4   ar
    37    12    18    1
    38    12    19    1
    39    17    20    1
    40    17    21    1
@<TRIPOS>MOLECULE
*****
 37 40 0 0 0
SMALL
GASTEIGER

@<TRIPOS>ATOM
      1 N         140.6982  140.2244  164.1889 N.ar    1  UNL1       -0.1967
      2 N         140.9472  141.4419  165.0290 N.ar    1  UNL1       -0.1666
      3 C         140.1550  141.3015  166.2949 C.ar    1  UNL1        0.0850
      4 C         139.4163  139.9972  166.2373 C.ar    1  UNL1        0.0334
      5 C         138.4813  139.3298  167.2018 C.ar    1  UNL1        0.0027
      6 C         137.8821  137.9967  166.8647 C.ar    1  UNL1        0.0001
      7 C         138.2178  137.3310  165.5631 C.ar    1  UNL1        0.0015
      8 C         139.1528  137.9985  164.5986 C.ar    1  UNL1        0.0193
      9 C         139.7520  139.3316  164.9357 C.ar    1  UNL1        0.0870
     10 C         142.4773  139.3958  160.1394 C.ar    1  UNL1        0.1194
     11 C         141.1450  140.0763  160.2483 C.ar    1  UNL1        0.1452
     12 N         140.4057  140.4806  159.0074 N.pl3   1  UNL1       -0.3415
     13 N         140.5520  140.3525  161.5982 N.ar    1  UNL1       -0.1940
     14 C         141.2912  139.9482  162.8391 C.ar    1  UNL1        0.2554
     15 N         142.6236  139.2677  162.7302 N.ar    1  UNL1       -0.1940
     16 C         143.2166  138.9915  161.3803 C.ar    1  UNL1        0.1452
     17 N         144.5489  138.3111  161.2715 N.pl3   1  UNL1       -0.3415
     18 H         140.7949  140.2994  158.1214 H       1  UNL1        0.1438
     19 H         139.5312  140.9273  159.0788 H       1  UNL1        0.1438
     20 H         145.0341  138.0457  162.0860 H       1  UNL1        0.1438
     21 H         144.9381  138.1298  160.3856 H       1  UNL1        0.1438
     22 C         143.9905  140.1204  158.1557 C.2     1  UNL1        0.4090
     23 O         144.3177  141.3972  158.8717 O.2     1  UNL1       -0.2258
     24 N         143.0703  139.1197  158.7896 N.am    1  UNL1       -0.2181
     25 C         142.7431  137.8428  158.0736 C.3     1  UNL1        0.1237
     26 C         145.4708  140.8629  156.1538 C.3     1  UNL1        0.2574
     27 O         144.5835  139.8443  156.8059 O.3     1  UNL1       -0.4302
     28 C         140.1094  142.2915  167.4209 C.3     1  UNL1        0.0785
     29 C         140.9021  142.0437  168.6701 C.ar    1  UNL1        0.0410
     30 C         140.2180  141.5335  169.9037 C.ar    1  UNL1        0.1388
     31 F         138.7412  141.2711  169.8880 F       1  UNL1       -0.2044
     32 C         141.0106  141.2856  171.1528 C.ar    1  UNL1        0.0318
     33 C         142.4874  141.5480  171.1683 C.ar    1  UNL1        0.0342
     34 C         143.1715  142.0582  169.9347 C.ar    1  UNL1        0.1672
     35 F         144.6483  142.3206  169.9502 F       1  UNL1       -0.2018
     36 C         142.3789  142.3061  168.6856 C.ar    1  UNL1        0.1659
     37 F         143.0630  142.8162  167.4520 F       1  UNL1       -0.2020
@<TRIPOS>BOND
     1    26    27    1
     2    27    22    1
     3    22    23    2
     4    22    24   am
     5    24    25    1
     6    24    10    1
     7    10    11   ar
     8    11    12    1
     9    11    13   ar
    10    13    14   ar
    11    14     1    1
    12     1     2   ar
    13     2     3   ar
    14     3    28    1
    15    28    29    1
    16    29    30   ar
    17    30    31    1
    18    30    32   ar
    19    32    33   ar
    20    33    34   ar
    21    34    35    1
    22    34    36   ar
    23    36    37    1
    24     3     4   ar
    25     4     5   ar
    26     5     6   ar
    27     6     7   ar
    28     7     8   ar
    29     8     9   ar
    30    14    15   ar
    31    15    16   ar
    32    16    17    1
    33    16    10   ar
    34     9     1   ar
    35    36    29   ar
    36     9     4   ar
    37    12    18    1
    38    12    19    1
    39    17    20    1
    40    17    21    1
@<TRIPOS>MOLECULE
*****
 37 40 0 0 0
SMALL
GASTEIGER

@<TRIPOS>ATOM
      1 N         141.1992  143.8469  162.0310 N.ar    1  UNL1       -0.1967
      2 N         142.4768  143.4022  162.6792 N.ar    1  UNL1       -0.1666
      3 C         142.2188  143.2383  164.1477 C.ar    1  UNL1        0.0850
      4 C         140.7819  143.5818  164.4072 C.ar    1  UNL1        0.0334
      5 C         139.9659  143.6007  165.6656 C.ar    1  UNL1        0.0027
      6 C         138.5198  143.9957  165.6159 C.ar    1  UNL1        0.0001
      7 C         137.8896  144.3719  164.3077 C.ar    1  UNL1        0.0015
      8 C         138.7056  144.3530  163.0492 C.ar    1  UNL1        0.0193
      9 C         140.1518  143.9580  163.0990 C.ar    1  UNL1        0.0870
     10 C         140.6119  144.6986  157.6515 C.ar    1  UNL1        0.1194
     11 C         141.7187  145.3746  158.4052 C.ar    1  UNL1        0.1452
     12 N         142.6297  146.3345  157.6991 N.pl3   1  UNL1       -0.3415
     13 N         141.9144  145.0907  159.8650 N.ar    1  UNL1       -0.1940
     14 C         141.0035  144.1309  160.5712 C.ar    1  UNL1        0.2554
     15 N         139.8966  143.4548  159.8175 N.ar    1  UNL1       -0.1940
     16 C         139.7009  143.7387  158.3576 C.ar    1  UNL1        0.1452
     17 N         138.5941  143.0627  157.6040 N.pl3   1  UNL1       -0.3415
     18 H         142.5012  146.5208  156.7409 H       1  UNL1        0.1438
     19 H         143.3561  146.7782  158.1937 H       1  UNL1        0.1438
     20 H         137.9962  142.4327  158.0675 H       1  UNL1        0.1438
     21 H         138.4656  143.2490  156.6459 H       1  UNL1        0.1438
     22 C         139.7294  146.2437  155.7585 C.2     1  UNL1        0.4090
     23 O         139.2383  147.2209  156.7850 O.2     1  UNL1       -0.2258
     24 N         140.4162  144.9825  156.1917 N.am    1  UNL1       -0.2181
     25 C         140.9072  144.0053  155.1651 C.3     1  UNL1        0.1237
     26 C         140.5288  147.3714  153.5586 C.3     1  UNL1        0.2574
     27 O         139.5336  146.5277  154.2987 O.3     1  UNL1       -0.4302
     28 C         143.2218  142.8067  165.1762 C.3     1  UNL1        0.0785
     29 C         143.2536  141.3807  165.6407 C.ar    1  UNL1        0.0410
     30 C         143.8629  140.3219  164.7703 C.ar    1  UNL1        0.1388
     31 F         144.4404  140.6891  163.4355 F       1  UNL1       -0.2044
     32 C         143.8947  138.8960  165.2346 C.ar    1  UNL1        0.0318
     33 C         143.3172  138.5289  166.5695 C.ar    1  UNL1        0.0342
     34 C         142.7078  139.5877  167.4398 C.ar    1  UNL1        0.1672
     35 F         142.1303  139.2206  168.7746 F       1  UNL1       -0.2018
     36 C         142.6760  141.0136  166.9755 C.ar    1  UNL1        0.1659
     37 F         142.0667  142.0725  167.8459 F       1  UNL1       -0.2020
@<TRIPOS>BOND
     1    26    27    1
     2    27    22    1
     3    22    23    2
     4    22    24   am
     5    24    25    1
     6    24    10    1
     7    10    11   ar
     8    11    12    1
     9    11    13   ar
    10    13    14   ar
    11    14     1    1
    12     1     2   ar
    13     2     3   ar
    14     3    28    1
    15    28    29    1
    16    29    30   ar
    17    30    31    1
    18    30    32   ar
    19    32    33   ar
    20    33    34   ar
    21    34    35    1
    22    34    36   ar
    23    36    37    1
    24     3     4   ar
    25     4     5   ar
    26     5     6   ar
    27     6     7   ar
    28     7     8   ar
    29     8     9   ar
    30    14    15   ar
    31    15    16   ar
    32    16    17    1
    33    16    10   ar
    34     9     1   ar
    35    36    29   ar
    36     9     4   ar
    37    12    18    1
    38    12    19    1
    39    17    20    1
    40    17    21    1
@<TRIPOS>MOLECULE
*****
 37 40 0 0 0
SMALL
GASTEIGER

@<TRIPOS>ATOM
      1 N         142.0870  142.5178  163.1127 N.ar    1  UNL1       -0.1967
      2 N         142.7885  142.0250  164.3435 N.ar    1  UNL1       -0.1666
      3 C         141.9773  142.4378  165.5359 C.ar    1  UNL1        0.0850
      4 C         140.7745  143.1856  165.0419 C.ar    1  UNL1        0.0334
      5 C         139.6263  143.8279  165.7624 C.ar    1  UNL1        0.0027
      6 C         138.5459  144.5197  164.9852 C.ar    1  UNL1        0.0001
      7 C         138.6137  144.5692  163.4875 C.ar    1  UNL1        0.0015
      8 C         139.7619  143.9269  162.7671 C.ar    1  UNL1        0.0193
      9 C         140.8423  143.2351  163.5443 C.ar    1  UNL1        0.0870
     10 C         143.4731  141.9448  158.8699 C.ar    1  UNL1        0.1194
     11 C         142.9708  143.2845  159.3204 C.ar    1  UNL1        0.1452
     12 N         142.9305  144.4332  158.3567 N.pl3   1  UNL1       -0.3415
     13 N         142.5087  143.4755  160.7346 N.ar    1  UNL1       -0.1940
     14 C         142.5490  142.3268  161.6984 C.ar    1  UNL1        0.2554
     15 N         143.0513  140.9871  161.2479 N.ar    1  UNL1       -0.1940
     16 C         143.5134  140.7961  159.8337 C.ar    1  UNL1        0.1452
     17 N         144.0157  139.4564  159.3833 N.pl3   1  UNL1       -0.3415
     18 H         143.2337  144.3079  157.4284 H       1  UNL1        0.1438
     19 H         142.6008  145.3125  158.6523 H       1  UNL1        0.1438
     20 H         144.0421  138.7025  160.0159 H       1  UNL1        0.1438
     21 H         144.3189  139.3311  158.4551 H       1  UNL1        0.1438
     22 C         145.3273  142.1496  157.0617 C.2     1  UNL1        0.4090
     23 O         146.2574  142.7362  158.0818 O.2     1  UNL1       -0.2258
     24 N         143.9351  141.7539  157.4557 N.am    1  UNL1       -0.2181
     25 C         143.0050  141.1672  156.4355 C.3     1  UNL1        0.1237
     26 C         147.2423  141.7234  155.3584 C.3     1  UNL1        0.2574
     27 O         145.7894  141.9587  155.6474 O.3     1  UNL1       -0.4302
     28 C         142.3105  142.1527  166.9703 C.3     1  UNL1        0.0785
     29 C         141.2401  141.6809  167.9095 C.ar    1  UNL1        0.0410
     30 C         140.5002  140.4076  167.6245 C.ar    1  UNL1        0.1388
     31 F         140.8306  139.6061  166.4003 F       1  UNL1       -0.2044
     32 C         139.4299  139.9358  168.5635 C.ar    1  UNL1        0.0318
     33 C         139.0995  140.7374  169.7875 C.ar    1  UNL1        0.0342
     34 C         139.8394  142.0106  170.0726 C.ar    1  UNL1        0.1672
     35 F         139.5090  142.8122  171.2967 F       1  UNL1       -0.2018
     36 C         140.9097  142.4825  169.1336 C.ar    1  UNL1        0.1659
     37 F         141.6496  143.7557  169.4186 F       1  UNL1       -0.2020
@<TRIPOS>BOND
     1    26    27    1
     2    27    22    1
     3    22    23    2
     4    22    24   am
     5    24    25    1
     6    24    10    1
     7    10    11   ar
     8    11    12    1
     9    11    13   ar
    10    13    14   ar
    11    14     1    1
    12     1     2   ar
    13     2     3   ar
    14     3    28    1
    15    28    29    1
    16    29    30   ar
    17    30    31    1
    18    30    32   ar
    19    32    33   ar
    20    33    34   ar
    21    34    35    1
    22    34    36   ar
    23    36    37    1
    24     3     4   ar
    25     4     5   ar
    26     5     6   ar
    27     6     7   ar
    28     7     8   ar
    29     8     9   ar
    30    14    15   ar
    31    15    16   ar
    32    16    17    1
    33    16    10   ar
    34     9     1   ar
    35    36    29   ar
    36     9     4   ar
    37    12    18    1
    38    12    19    1
    39    17    20    1
    40    17    21    1
@<TRIPOS>MOLECULE
*****
 37 40 0 0 0
SMALL
GASTEIGER

@<TRIPOS>ATOM
      1 N         141.0564  143.7770  161.8483 N.ar    1  UNL1       -0.1967
      2 N         139.9556  143.7693  162.8672 N.ar    1  UNL1       -0.1666
      3 C         140.5494  143.3784  164.1880 C.ar    1  UNL1        0.0850
      4 C         142.0171  143.1445  163.9854 C.ar    1  UNL1        0.0334
      5 C         143.1088  142.7390  164.9309 C.ar    1  UNL1        0.0027
      6 C         144.5137  142.5800  164.4302 C.ar    1  UNL1        0.0001
      7 C         144.8271  142.8263  162.9842 C.ar    1  UNL1        0.0015
      8 C         143.7355  143.2318  162.0387 C.ar    1  UNL1        0.0193
      9 C         142.3305  143.3909  162.5394 C.ar    1  UNL1        0.0870
     10 C         140.6143  144.7822  157.4843 C.ar    1  UNL1        0.1194
     11 C         139.6733  143.8078  158.1286 C.ar    1  UNL1        0.1452
     12 N         138.5849  143.1685  157.3182 N.pl3   1  UNL1       -0.3415
     13 N         139.8207  143.4728  159.5832 N.ar    1  UNL1       -0.1940
     14 C         140.9090  144.1121  160.3936 C.ar    1  UNL1        0.2554
     15 N         141.8500  145.0865  159.7493 N.ar    1  UNL1       -0.1940
     16 C         141.7026  145.4215  158.2946 C.ar    1  UNL1        0.1452
     17 N         142.6436  146.3959  157.6504 N.pl3   1  UNL1       -0.3415
     18 H         138.4882  143.3884  156.3635 H       1  UNL1        0.1438
     19 H         137.9673  142.5290  157.7411 H       1  UNL1        0.1438
     20 H         143.3580  146.8155  158.1823 H       1  UNL1        0.1438
     21 H         142.5469  146.6158  156.6957 H       1  UNL1        0.1438
     22 C         139.7457  146.3661  155.6170 C.2     1  UNL1        0.4090
     23 O         139.1719  147.2798  156.6590 O.2     1  UNL1       -0.2258
     24 N         140.4669  145.1172  156.0296 N.am    1  UNL1       -0.2181
     25 C         141.0407  144.2035  154.9876 C.3     1  UNL1        0.1237
     26 C         140.6060  147.5860  153.4906 C.3     1  UNL1        0.2574
     27 O         139.5982  146.7012  154.1624 O.3     1  UNL1       -0.4302
     28 C         139.8060  143.2448  165.4840 C.3     1  UNL1        0.0785
     29 C         139.4679  141.8843  166.0179 C.ar    1  UNL1        0.0410
     30 C         138.5120  141.0018  165.2713 C.ar    1  UNL1        0.1388
     31 F         137.8942  141.4798  163.9907 F       1  UNL1       -0.2044
     32 C         138.1739  139.6415  165.8051 C.ar    1  UNL1        0.0318
     33 C         138.7918  139.1636  167.0857 C.ar    1  UNL1        0.0342
     34 C         139.7477  140.0460  167.8323 C.ar    1  UNL1        0.1672
     35 F         140.3656  139.5681  169.1129 F       1  UNL1       -0.2018
     36 C         140.0858  141.4064  167.2985 C.ar    1  UNL1        0.1659
     37 F         141.0417  142.2889  168.0451 F       1  UNL1       -0.2020
@<TRIPOS>BOND
     1    26    27    1
     2    27    22    1
     3    22    23    2
     4    22    24   am
     5    24    25    1
     6    24    10    1
     7    10    11   ar
     8    11    12    1
     9    11    13   ar
    10    13    14   ar
    11    14     1    1
    12     1     2   ar
    13     2     3   ar
    14     3    28    1
    15    28    29    1
    16    29    30   ar
    17    30    31    1
    18    30    32   ar
    19    32    33   ar
    20    33    34   ar
    21    34    35    1
    22    34    36   ar
    23    36    37    1
    24     3     4   ar
    25     4     5   ar
    26     5     6   ar
    27     6     7   ar
    28     7     8   ar
    29     8     9   ar
    30    14    15   ar
    31    15    16   ar
    32    16    17    1
    33    16    10   ar
    34     9     1   ar
    35    36    29   ar
    36     9     4   ar
    37    12    18    1
    38    12    19    1
    39    17    20    1
    40    17    21    1
@<TRIPOS>MOLECULE
*****
 37 40 0 0 0
SMALL
GASTEIGER

@<TRIPOS>ATOM
      1 N         142.0792  142.5703  162.9733 N.ar    1  UNL1       -0.1967
      2 N         142.7718  142.0757  164.2085 N.ar    1  UNL1       -0.1666
      3 C         141.9568  142.4947  165.3960 C.ar    1  UNL1        0.0850
      4 C         140.7605  143.2481  164.8947 C.ar    1  UNL1        0.0334
      5 C         139.6121  143.8977  165.6083 C.ar    1  UNL1        0.0027
      6 C         138.5393  144.5939  164.8244 C.ar    1  UNL1        0.0001
      7 C         138.6150  144.6406  163.3271 C.ar    1  UNL1        0.0015
      8 C         139.7634  143.9911  162.6135 C.ar    1  UNL1        0.0193
      9 C         140.8362  143.2948  163.3974 C.ar    1  UNL1        0.0870
     10 C         143.4840  141.9833  158.7386 C.ar    1  UNL1        0.1194
     11 C         143.5123  140.8357  159.7041 C.ar    1  UNL1        0.1452
     12 N         144.0088  139.4924  159.2580 N.pl3   1  UNL1       -0.3415
     13 N         143.0440  141.0314  161.1157 N.ar    1  UNL1       -0.1940
     14 C         142.5475  142.3746  161.5618 C.ar    1  UNL1        0.2554
     15 N         142.5192  143.5223  160.5962 N.ar    1  UNL1       -0.1940
     16 C         142.9875  143.3266  159.1847 C.ar    1  UNL1        0.1452
     17 N         142.9591  144.4742  158.2193 N.pl3   1  UNL1       -0.3415
     18 H         144.3162  139.3640  158.3316 H       1  UNL1        0.1438
     19 H         144.0274  138.7392  159.8917 H       1  UNL1        0.1438
     20 H         142.6332  145.3559  158.5121 H       1  UNL1        0.1438
     21 H         143.2665  144.3459  157.2928 H       1  UNL1        0.1438
     22 C         145.3541  142.1590  156.9437 C.2     1  UNL1        0.4090
     23 O         146.2876  142.7260  157.9718 O.2     1  UNL1       -0.2258
     24 N         143.9523  141.7876  157.3271 N.am    1  UNL1       -0.2181
     25 C         143.0187  141.2206  156.2990 C.3     1  UNL1        0.1237
     26 C         147.2868  141.8193  155.2409 C.3     1  UNL1        0.2574
     27 O         145.8224  141.9633  155.5322 O.3     1  UNL1       -0.4302
     28 C         142.2810  142.2102  166.8327 C.3     1  UNL1        0.0785
     29 C         141.2248  141.6610  167.7454 C.ar    1  UNL1        0.0410
     30 C         141.0349  142.2493  169.1122 C.ar    1  UNL1        0.1388
     31 F         141.9012  143.3866  169.5661 F       1  UNL1       -0.2044
     32 C         139.9788  141.7002  170.0249 C.ar    1  UNL1        0.0318
     33 C         139.1126  140.5629  169.5709 C.ar    1  UNL1        0.0342
     34 C         139.3025  139.9747  168.2042 C.ar    1  UNL1        0.1672
     35 F         138.4363  138.8373  167.7501 F       1  UNL1       -0.2018
     36 C         140.3586  140.5237  167.2914 C.ar    1  UNL1        0.1659
     37 F         140.5485  139.9355  165.9247 F       1  UNL1       -0.2020
@<TRIPOS>BOND
     1    26    27    1
     2    27    22    1
     3    22    23    2
     4    22    24   am
     5    24    25    1
     6    24    10    1
     7    10    11   ar
     8    11    12    1
     9    11    13   ar
    10    13    14   ar
    11    14     1    1
    12     1     2   ar
    13     2     3   ar
    14     3    28    1
    15    28    29    1
    16    29    30   ar
    17    30    31    1
    18    30    32   ar
    19    32    33   ar
    20    33    34   ar
    21    34    35    1
    22    34    36   ar
    23    36    37    1
    24     3     4   ar
    25     4     5   ar
    26     5     6   ar
    27     6     7   ar
    28     7     8   ar
    29     8     9   ar
    30    14    15   ar
    31    15    16   ar
    32    16    17    1
    33    16    10   ar
    34     9     1   ar
    35    36    29   ar
    36     9     4   ar
    37    12    18    1
    38    12    19    1
    39    17    20    1
    40    17    21    1
@<TRIPOS>MOLECULE
*****
 37 40 0 0 0
SMALL
GASTEIGER

@<TRIPOS>ATOM
      1 N         139.7026  138.8686  160.9250 N.ar    1  UNL1       -0.1967
      2 N         139.7461  137.9472  162.1079 N.ar    1  UNL1       -0.1666
      3 C         139.1228  138.6583  163.2723 C.ar    1  UNL1        0.0850
      4 C         138.6941  140.0190  162.8091 C.ar    1  UNL1        0.0334
      5 C         138.0237  141.1565  163.5208 C.ar    1  UNL1        0.0027
      6 C         137.7117  142.4240  162.7819 C.ar    1  UNL1        0.0001
      7 C         138.0700  142.5539  161.3311 C.ar    1  UNL1        0.0015
      8 C         138.7404  141.4165  160.6194 C.ar    1  UNL1        0.0193
      9 C         139.0524  140.1490  161.3583 C.ar    1  UNL1        0.0870
     10 C         141.2509  137.9522  156.8002 C.ar    1  UNL1        0.1194
     11 C         142.1651  138.5483  157.8292 C.ar    1  UNL1        0.1452
     12 N         143.5954  138.8390  157.4833 N.pl3   1  UNL1       -0.3415
     13 N         141.6490  138.8538  159.2041 N.ar    1  UNL1       -0.1940
     14 C         140.2187  138.5631  159.5501 C.ar    1  UNL1        0.2554
     15 N         139.3044  137.9670  158.5210 N.ar    1  UNL1       -0.1940
     16 C         139.8206  137.6616  157.1461 C.ar    1  UNL1        0.1452
     17 N         138.9063  137.0655  156.1172 N.pl3   1  UNL1       -0.3415
     18 H         143.9342  138.6385  156.5809 H       1  UNL1        0.1438
     19 H         144.1955  139.2302  158.1587 H       1  UNL1        0.1438
     20 H         137.9675  136.8748  156.3443 H       1  UNL1        0.1438
     21 H         139.2450  136.8650  155.2148 H       1  UNL1        0.1438
     22 C         141.9915  136.2238  155.0076 C.2     1  UNL1        0.4090
     23 O         141.6999  135.1062  155.9646 O.2     1  UNL1       -0.2258
     24 N         141.7670  137.6468  155.4253 N.am    1  UNL1       -0.2181
     25 C         142.0586  138.7644  154.4683 C.3     1  UNL1        0.1237
     26 C         141.8289  134.8790  152.7905 C.3     1  UNL1        0.2574
     27 O         142.5076  135.9183  153.6326 O.3     1  UNL1       -0.4302
     28 C         138.9572  138.1056  164.6569 C.3     1  UNL1        0.0785
     29 C         139.5971  138.7993  165.8229 C.ar    1  UNL1        0.0410
     30 C         141.0682  139.0918  165.8064 C.ar    1  UNL1        0.1388
     31 F         141.8994  138.6905  164.6239 F       1  UNL1       -0.2044
     32 C         141.7081  139.7854  166.9722 C.ar    1  UNL1        0.0318
     33 C         140.8769  140.1866  168.1546 C.ar    1  UNL1        0.0342
     34 C         139.4058  139.8941  168.1711 C.ar    1  UNL1        0.1672
     35 F         138.5746  140.2953  169.3535 F       1  UNL1       -0.2018
     36 C         138.7659  139.2005  167.0053 C.ar    1  UNL1        0.1659
     37 F         137.2948  138.9080  167.0218 F       1  UNL1       -0.2020
@<TRIPOS>BOND
     1    26    27    1
     2    27    22    1
     3    22    23    2
     4    22    24   am
     5    24    25    1
     6    24    10    1
     7    10    11   ar
     8    11    12    1
     9    11    13   ar
    10    13    14   ar
    11    14     1    1
    12     1     2   ar
    13     2     3   ar
    14     3    28    1
    15    28    29    1
    16    29    30   ar
    17    30    31    1
    18    30    32   ar
    19    32    33   ar
    20    33    34   ar
    21    34    35    1
    22    34    36   ar
    23    36    37    1
    24     3     4   ar
    25     4     5   ar
    26     5     6   ar
    27     6     7   ar
    28     7     8   ar
    29     8     9   ar
    30    14    15   ar
    31    15    16   ar
    32    16    17    1
    33    16    10   ar
    34     9     1   ar
    35    36    29   ar
    36     9     4   ar
    37    12    18    1
    38    12    19    1
    39    17    20    1
    40    17    21    1
@<TRIPOS>MOLECULE
*****
 37 40 0 0 0
SMALL
GASTEIGER

@<TRIPOS>ATOM
      1 N         141.0610  141.2983  163.0890 N.ar    1  UNL1       -0.1967
      2 N         141.8576  141.5482  164.3352 N.ar    1  UNL1       -0.1666
      3 C         141.5721  140.4347  165.2989 C.ar    1  UNL1        0.0850
      4 C         140.5991  139.4966  164.6482 C.ar    1  UNL1        0.0334
      5 C         139.9600  138.2254  165.1230 C.ar    1  UNL1        0.0027
      6 C         139.0050  137.4879  164.2319 C.ar    1  UNL1        0.0001
      7 C         138.6891  138.0216  162.8661 C.ar    1  UNL1        0.0015
      8 C         139.3283  139.2928  162.3914 C.ar    1  UNL1        0.0193
      9 C         140.2833  140.0303  163.2824 C.ar    1  UNL1        0.0870
     10 C         141.0131  143.8961  159.4149 C.ar    1  UNL1        0.1194
     11 C         140.3426  144.3634  160.6726 C.ar    1  UNL1        0.1452
     12 N         139.6560  145.6967  160.7057 N.pl3   1  UNL1       -0.3415
     13 N         140.3586  143.4974  161.8973 N.ar    1  UNL1       -0.1940
     14 C         141.0450  142.1642  161.8643 C.ar    1  UNL1        0.2554
     15 N         141.7156  141.6969  160.6065 N.ar    1  UNL1       -0.1940
     16 C         141.6996  142.5629  159.3818 C.ar    1  UNL1        0.1452
     17 N         142.3702  142.0955  158.1241 N.pl3   1  UNL1       -0.3415
     18 H         139.6455  146.2650  159.9019 H       1  UNL1        0.1438
     19 H         139.2159  146.0034  161.5312 H       1  UNL1        0.1438
     20 H         142.8208  141.2205  158.1024 H       1  UNL1        0.1438
     21 H         142.3598  142.6639  157.3203 H       1  UNL1        0.1438
     22 C         139.9080  144.6004  157.1716 C.2     1  UNL1        0.4090
     23 O         138.8349  143.5728  157.3776 O.2     1  UNL1       -0.2258
     24 N         140.9971  144.7621  158.1902 N.am    1  UNL1       -0.2181
     25 C         142.0702  145.7897  157.9842 C.3     1  UNL1        0.1237
     26 C         139.0470  146.7053  155.9152 C.3     1  UNL1        0.2574
     27 O         139.8919  145.4664  155.9469 O.3     1  UNL1       -0.4302
     28 C         142.1569  140.2855  166.6721 C.3     1  UNL1        0.0785
     29 C         141.5787  141.0568  167.8214 C.ar    1  UNL1        0.0410
     30 C         142.3044  142.2528  168.3628 C.ar    1  UNL1        0.1388
     31 F         143.6083  142.6773  167.7548 F       1  UNL1       -0.2044
     32 C         141.7263  143.0241  169.5120 C.ar    1  UNL1        0.0318
     33 C         140.4224  142.5995  170.1199 C.ar    1  UNL1        0.0342
     34 C         139.6967  141.4036  169.5786 C.ar    1  UNL1        0.1672
     35 F         138.3928  140.9789  170.1865 F       1  UNL1       -0.2018
     36 C         140.2748  140.6322  168.4293 C.ar    1  UNL1        0.1659
     37 F         139.5491  139.4363  167.8880 F       1  UNL1       -0.2020
@<TRIPOS>BOND
     1    26    27    1
     2    27    22    1
     3    22    23    2
     4    22    24   am
     5    24    25    1
     6    24    10    1
     7    10    11   ar
     8    11    12    1
     9    11    13   ar
    10    13    14   ar
    11    14     1    1
    12     1     2   ar
    13     2     3   ar
    14     3    28    1
    15    28    29    1
    16    29    30   ar
    17    30    31    1
    18    30    32   ar
    19    32    33   ar
    20    33    34   ar
    21    34    35    1
    22    34    36   ar
    23    36    37    1
    24     3     4   ar
    25     4     5   ar
    26     5     6   ar
    27     6     7   ar
    28     7     8   ar
    29     8     9   ar
    30    14    15   ar
    31    15    16   ar
    32    16    17    1
    33    16    10   ar
    34     9     1   ar
    35    36    29   ar
    36     9     4   ar
    37    12    18    1
    38    12    19    1
    39    17    20    1
    40    17    21    1
@<TRIPOS>MOLECULE
*****
 37 40 0 0 0
SMALL
GASTEIGER

@<TRIPOS>ATOM
      1 N         138.6950  139.8970  161.2663 N.ar    1  UNL1       -0.1967
      2 N         138.9213  138.7508  162.2069 N.ar    1  UNL1       -0.1666
      3 C         138.7453  139.2587  163.6073 C.ar    1  UNL1        0.0850
      4 C         138.4101  140.7189  163.5321 C.ar    1  UNL1        0.0334
      5 C         138.1293  141.7402  164.5941 C.ar    1  UNL1        0.0027
      6 C         137.8173  143.1560  164.2093 C.ar    1  UNL1        0.0001
      7 C         137.7862  143.5505  162.7625 C.ar    1  UNL1        0.0015
      8 C         138.0671  142.5292  161.7004 C.ar    1  UNL1        0.0193
      9 C         138.3790  141.1134  162.0852 C.ar    1  UNL1        0.0870
     10 C         138.9235  139.7182  156.7756 C.ar    1  UNL1        0.1194
     11 C         140.0871  139.2614  157.6046 C.ar    1  UNL1        0.1452
     12 N         141.3269  138.7449  156.9367 N.pl3   1  UNL1       -0.3415
     13 N         140.0109  139.3210  159.1014 N.ar    1  UNL1       -0.1940
     14 C         138.7712  139.8374  159.7694 C.ar    1  UNL1        0.2554
     15 N         137.6074  140.2943  158.9404 N.ar    1  UNL1       -0.1940
     16 C         137.6836  140.2347  157.4435 C.ar    1  UNL1        0.1452
     17 N         136.5200  140.6915  156.6146 N.pl3   1  UNL1       -0.3415
     18 H         141.3769  138.7058  155.9542 H       1  UNL1        0.1438
     19 H         142.0907  138.4451  157.4807 H       1  UNL1        0.1438
     20 H         135.7062  141.0305  157.0530 H       1  UNL1        0.1438
     21 H         136.5699  140.6524  155.6321 H       1  UNL1        0.1438
     22 C         138.5469  138.4263  154.5532 C.2     1  UNL1        0.4090
     23 O         138.0179  137.2536  155.3246 O.2     1  UNL1       -0.2258
     24 N         138.9997  139.6586  155.2787 N.am    1  UNL1       -0.2181
     25 C         139.5286  140.8313  154.5074 C.3     1  UNL1        0.1237
     26 C         139.7495  137.6326  152.3913 C.3     1  UNL1        0.2574
     27 O         138.6230  138.3666  153.0563 O.3     1  UNL1       -0.4302
     28 C         138.8806  138.4487  164.8625 C.3     1  UNL1        0.0785
     29 C         139.4882  139.0622  166.0892 C.ar    1  UNL1        0.0410
     30 C         140.9341  139.4614  166.0905 C.ar    1  UNL1        0.1388
     31 F         141.7724  139.2472  164.8651 F       1  UNL1       -0.2044
     32 C         141.5417  140.0749  167.3170 C.ar    1  UNL1        0.0318
     33 C         140.7034  140.2891  168.5423 C.ar    1  UNL1        0.0342
     34 C         139.2576  139.8898  168.5410 C.ar    1  UNL1        0.1672
     35 F         138.4192  140.1041  169.7663 F       1  UNL1       -0.2018
     36 C         138.6499  139.2764  167.3145 C.ar    1  UNL1        0.1659
     37 F         137.2040  138.8772  167.3132 F       1  UNL1       -0.2020
@<TRIPOS>BOND
     1    26    27    1
     2    27    22    1
     3    22    23    2
     4    22    24   am
     5    24    25    1
     6    24    10    1
     7    10    11   ar
     8    11    12    1
     9    11    13   ar
    10    13    14   ar
    11    14     1    1
    12     1     2   ar
    13     2     3   ar
    14     3    28    1
    15    28    29    1
    16    29    30   ar
    17    30    31    1
    18    30    32   ar
    19    32    33   ar
    20    33    34   ar
    21    34    35    1
    22    34    36   ar
    23    36    37    1
    24     3     4   ar
    25     4     5   ar
    26     5     6   ar
    27     6     7   ar
    28     7     8   ar
    29     8     9   ar
    30    14    15   ar
    31    15    16   ar
    32    16    17    1
    33    16    10   ar
    34     9     1   ar
    35    36    29   ar
    36     9     4   ar
    37    12    18    1
    38    12    19    1
    39    17    20    1
    40    17    21    1
