@<TRIPOS>MOLECULE
*****
 32 35 0 0 0
SMALL
GASTEIGER

@<TRIPOS>ATOM
      1 C         138.6428  140.2081  160.3068 C.2     1  UNL1        0.2521
      2 O         137.2632  139.8449  159.8434 O.2     1  UNL1       -0.2698
      3 N         138.9082  140.4367  161.7654 N.am    1  UNL1       -0.2725
      4 C         140.2878  140.7999  162.2288 C.3     1  UNL1        0.1151
      5 C         140.5531  141.0285  163.6874 C.3     1  UNL1        0.1124
      6 N         139.4388  140.8938  164.6825 N.pl3   1  UNL1       -0.3023
      7 C         138.0592  140.5305  164.2191 C.3     1  UNL1        0.1124
      8 C         137.7939  140.3020  162.7605 C.3     1  UNL1        0.1151
      9 C         139.7042  141.1224  166.1410 C.ar    1  UNL1        0.0758
     10 C         139.4646  140.0192  167.1288 C.ar    1  UNL1        0.0175
     11 C         139.7300  140.2478  168.5873 C.ar    1  UNL1        0.0117
     12 C         140.2349  141.5795  169.0581 C.ar    1  UNL1        0.0708
     13 C         140.4745  142.6826  168.0703 C.ar    1  UNL1        0.0412
     14 C         140.2092  142.4541  166.6118 C.ar    1  UNL1        0.1540
     15 F         140.4487  143.5572  165.6240 F       1  UNL1       -0.2028
     16 C         140.5003  141.8081  170.5166 C.1     1  UNL1        0.1005
     17 N         140.7657  142.0367  171.9752 N.1     1  UNL1       -0.1908
     18 C         141.5858  139.2553  157.8207 C.ar    1  UNL1        0.1061
     19 C         141.9855  140.6121  157.3214 C.ar    1  UNL1        0.0215
     20 C         141.2710  141.8343  157.8173 C.ar    1  UNL1        0.0384
     21 C         140.1568  141.6996  158.8124 C.ar    1  UNL1        0.1429
     22 C         139.7571  140.3428  159.3117 C.ar    1  UNL1        0.0887
     23 C         140.4716  139.1207  158.8158 C.ar    1  UNL1        0.0259
     24 C         143.0148  136.8111  156.8289 C.3     1  UNL1        0.1816
     25 S         142.3003  138.0332  157.3248 S.O2    1  UNL1        0.0105
     26 O         143.6180  138.7183  157.5351 O.2     1  UNL1       -0.1686
     27 O         140.9825  137.3481  157.1145 O.2     1  UNL1       -0.1686
     28 O         139.4423  142.9217  159.3083 O.3     1  UNL1       -0.4753
     29 C         140.1413  143.8771  160.2294 C.3     1  UNL1        0.2053
     30 C         139.5160  144.2466  161.5419 C.3     1  UNL1        0.0438
     31 C         138.4736  144.0147  162.5952 C.3     1  UNL1        0.0038
     32 C         139.4755  145.1186  162.7617 C.3     1  UNL1        0.0038
@<TRIPOS>BOND
     1    24    25    1
     2    25    26    2
     3    25    27    2
     4    25    18    1
     5    18    19   ar
     6    19    20   ar
     7    20    21   ar
     8    21    28    1
     9    28    29    1
    10    29    30    1
    11    30    31    1
    12    31    32    1
    13    21    22   ar
    14    22     1    1
    15     1     2    2
    16     1     3   am
    17     3     4    1
    18     4     5    1
    19     5     6    1
    20     6     9    1
    21     9    10   ar
    22    10    11   ar
    23    11    12   ar
    24    12    16    1
    25    16    17    3
    26    12    13   ar
    27    13    14   ar
    28    14    15    1
    29     6     7    1
    30     7     8    1
    31    22    23   ar
    32    23    18   ar
    33    32    30    1
    34     8     3    1
    35    14     9   ar
@<TRIPOS>MOLECULE
*****
 32 35 0 0 0
SMALL
GASTEIGER

@<TRIPOS>ATOM
      1 C         139.3208  142.3149  164.8096 C.2     1  UNL1        0.2521
      2 O         138.0759  143.1451  164.7050 O.2     1  UNL1       -0.2698
      3 N         140.2085  142.1403  163.6132 N.am    1  UNL1       -0.2725
      4 C         141.4534  141.3101  163.7177 C.3     1  UNL1        0.1151
      5 C         142.3411  141.1355  162.5212 C.3     1  UNL1        0.1124
      6 N         141.9839  141.7910  161.2203 N.pl3   1  UNL1       -0.3023
      7 C         140.7390  142.6213  161.1157 C.3     1  UNL1        0.1124
      8 C         139.8513  142.7959  162.3121 C.3     1  UNL1        0.1151
      9 C         142.8716  141.6164  160.0239 C.ar    1  UNL1        0.0758
     10 C         143.7650  142.7377  159.5828 C.ar    1  UNL1        0.0175
     11 C         144.6528  142.5630  158.3863 C.ar    1  UNL1        0.0117
     12 C         144.6470  141.2671  157.6310 C.ar    1  UNL1        0.0708
     13 C         143.7536  140.1458  158.0720 C.ar    1  UNL1        0.0412
     14 C         142.8659  140.3205  159.2685 C.ar    1  UNL1        0.1540
     15 F         141.9724  139.1992  159.7095 F       1  UNL1       -0.2028
     16 C         145.5347  141.0924  156.4346 C.1     1  UNL1        0.1005
     17 N         146.4224  140.9178  155.2381 N.1     1  UNL1       -0.1908
     18 C         140.8889  141.7305  168.4081 C.ar    1  UNL1        0.1061
     19 C         140.3923  140.3483  168.7127 C.ar    1  UNL1        0.0215
     20 C         139.5385  139.6216  167.7162 C.ar    1  UNL1        0.0384
     21 C         139.1813  140.2771  166.4152 C.ar    1  UNL1        0.1429
     22 C         139.6779  141.6593  166.1107 C.ar    1  UNL1        0.0887
     23 C         140.5317  142.3860  167.1071 C.ar    1  UNL1        0.0259
     24 C         142.5965  143.1839  170.4011 C.3     1  UNL1        0.1816
     25 S         141.7427  142.4572  169.4046 S.O2    1  UNL1        0.0105
     26 O         142.8977  142.4112  168.4485 O.2     1  UNL1       -0.1686
     27 O         140.5878  142.5032  170.3606 O.2     1  UNL1       -0.1686
     28 O         138.3276  139.5504  165.4187 O.3     1  UNL1       -0.4753
     29 C         138.6831  138.1535  165.0038 C.3     1  UNL1        0.2053
     30 C         140.0948  137.8211  164.6211 C.3     1  UNL1        0.0438
     31 C         141.5635  137.8473  164.9248 C.3     1  UNL1        0.0038
     32 C         141.0713  137.2193  163.6546 C.3     1  UNL1        0.0038
@<TRIPOS>BOND
     1    24    25    1
     2    25    26    2
     3    25    27    2
     4    25    18    1
     5    18    19   ar
     6    19    20   ar
     7    20    21   ar
     8    21    28    1
     9    28    29    1
    10    29    30    1
    11    30    31    1
    12    31    32    1
    13    21    22   ar
    14    22     1    1
    15     1     2    2
    16     1     3   am
    17     3     4    1
    18     4     5    1
    19     5     6    1
    20     6     9    1
    21     9    10   ar
    22    10    11   ar
    23    11    12   ar
    24    12    16    1
    25    16    17    3
    26    12    13   ar
    27    13    14   ar
    28    14    15    1
    29     6     7    1
    30     7     8    1
    31    22    23   ar
    32    23    18   ar
    33    32    30    1
    34     8     3    1
    35    14     9   ar
@<TRIPOS>MOLECULE
*****
 32 35 0 0 0
SMALL
GASTEIGER

@<TRIPOS>ATOM
      1 C         139.1445  140.7597  160.3180 C.2     1  UNL1        0.2521
      2 O         137.8231  140.3152  159.7647 O.2     1  UNL1       -0.2698
      3 N         139.3181  140.9328  161.7978 N.am    1  UNL1       -0.2725
      4 C         140.6396  141.3773  162.3511 C.3     1  UNL1        0.1151
      5 C         140.8131  141.5503  163.8310 C.3     1  UNL1        0.1124
      6 N         139.6652  141.2788  164.7575 N.pl3   1  UNL1       -0.3023
      7 C         138.3437  140.8342  164.2043 C.3     1  UNL1        0.1124
      8 C         138.1702  140.6612  162.7245 C.3     1  UNL1        0.1151
      9 C         139.8388  141.4518  166.2373 C.ar    1  UNL1        0.0758
     10 C         140.2466  142.7836  166.7940 C.ar    1  UNL1        0.0175
     11 C         140.4202  142.9566  168.2739 C.ar    1  UNL1        0.0117
     12 C         140.1859  141.7978  169.1971 C.ar    1  UNL1        0.0708
     13 C         139.7781  140.4660  168.6404 C.ar    1  UNL1        0.0412
     14 C         139.6045  140.2929  167.1606 C.ar    1  UNL1        0.1540
     15 F         139.1967  138.9611  166.6039 F       1  UNL1       -0.2028
     16 C         140.3595  141.9708  170.6769 C.1     1  UNL1        0.1005
     17 N         140.5331  142.1438  172.1568 N.1     1  UNL1       -0.1908
     18 C         141.6241  142.6716  157.8795 C.ar    1  UNL1        0.1061
     19 C         142.5882  141.5744  157.5382 C.ar    1  UNL1        0.0215
     20 C         142.4044  140.2056  158.1235 C.ar    1  UNL1        0.0384
     21 C         141.2566  139.9340  159.0501 C.ar    1  UNL1        0.1429
     22 C         140.2925  141.0313  159.3914 C.ar    1  UNL1        0.0887
     23 C         140.4763  142.4001  158.8061 C.ar    1  UNL1        0.0259
     24 C         141.9917  145.4093  156.7089 C.3     1  UNL1        0.1816
     25 S         141.8079  144.0405  157.2942 S.O2    1  UNL1        0.0105
     26 O         140.6924  143.7765  156.3267 O.2     1  UNL1       -0.1686
     27 O         142.9234  144.3044  158.2617 O.2     1  UNL1       -0.1686
     28 O         141.0728  138.5652  159.6354 O.3     1  UNL1       -0.4753
     29 C         141.9392  138.1137  160.7736 C.3     1  UNL1        0.2053
     30 C         141.3309  137.8437  162.1179 C.3     1  UNL1        0.0438
     31 C         141.4763  137.6961  163.6035 C.3     1  UNL1        0.0038
     32 C         140.1321  137.5236  162.9606 C.3     1  UNL1        0.0038
@<TRIPOS>BOND
     1    24    25    1
     2    25    26    2
     3    25    27    2
     4    25    18    1
     5    18    19   ar
     6    19    20   ar
     7    20    21   ar
     8    21    28    1
     9    28    29    1
    10    29    30    1
    11    30    31    1
    12    31    32    1
    13    21    22   ar
    14    22     1    1
    15     1     2    2
    16     1     3   am
    17     3     4    1
    18     4     5    1
    19     5     6    1
    20     6     9    1
    21     9    10   ar
    22    10    11   ar
    23    11    12   ar
    24    12    16    1
    25    16    17    3
    26    12    13   ar
    27    13    14   ar
    28    14    15    1
    29     6     7    1
    30     7     8    1
    31    22    23   ar
    32    23    18   ar
    33    32    30    1
    34     8     3    1
    35    14     9   ar
@<TRIPOS>MOLECULE
*****
 32 35 0 0 0
SMALL
GASTEIGER

@<TRIPOS>ATOM
      1 C         141.8082  143.1222  159.8824 C.2     1  UNL1        0.2521
      2 O         142.3978  144.3384  159.2319 O.2     1  UNL1       -0.2698
      3 N         141.7816  143.0099  161.3779 N.am    1  UNL1       -0.2725
      4 C         141.1921  141.7936  162.0284 C.3     1  UNL1        0.1151
      5 C         141.1655  141.6814  163.5240 C.3     1  UNL1        0.1124
      6 N         141.7284  142.7855  164.3690 N.pl3   1  UNL1       -0.3023
      7 C         142.3180  144.0017  163.7186 C.3     1  UNL1        0.1124
      8 C         142.3446  144.1140  162.2230 C.3     1  UNL1        0.1151
      9 C         141.7018  142.6732  165.8646 C.ar    1  UNL1        0.0758
     10 C         140.4269  142.9265  166.6131 C.ar    1  UNL1        0.0175
     11 C         140.4003  142.8142  168.1087 C.ar    1  UNL1        0.0117
     12 C         141.6486  142.4487  168.8557 C.ar    1  UNL1        0.0708
     13 C         142.9236  142.1955  168.1071 C.ar    1  UNL1        0.0412
     14 C         142.9502  142.3077  166.6116 C.ar    1  UNL1        0.1540
     15 F         144.2252  142.0544  165.8631 F       1  UNL1       -0.2028
     16 C         141.6220  142.3365  170.3512 C.1     1  UNL1        0.1005
     17 N         141.5954  142.2243  171.8468 N.1     1  UNL1       -0.1908
     18 C         139.2796  141.0105  157.6694 C.ar    1  UNL1        0.1061
     19 C         140.1193  139.8101  157.3470 C.ar    1  UNL1        0.0215
     20 C         141.5219  139.7137  157.8698 C.ar    1  UNL1        0.0384
     21 C         142.0849  140.8177  158.7149 C.ar    1  UNL1        0.1429
     22 C         141.2453  142.0181  159.0372 C.ar    1  UNL1        0.0887
     23 C         139.8426  142.1145  158.5145 C.ar    1  UNL1        0.0259
     24 C         136.4743  141.2034  156.6238 C.3     1  UNL1        0.1816
     25 S         137.8770  141.1070  157.1466 S.O2    1  UNL1        0.0105
     26 O         138.0328  139.7712  156.4822 O.2     1  UNL1       -0.1686
     27 O         137.7212  142.4428  157.8110 O.2     1  UNL1       -0.1686
     28 O         143.4876  140.7213  159.2377 O.3     1  UNL1       -0.4753
     29 C         143.8245  139.7181  160.3007 C.3     1  UNL1        0.2053
     30 C         144.2837  140.1821  161.6512 C.3     1  UNL1        0.0438
     31 C         144.9025  141.2352  162.5218 C.3     1  UNL1        0.0038
     32 C         144.4604  139.9325  163.1197 C.3     1  UNL1        0.0038
@<TRIPOS>BOND
     1    24    25    1
     2    25    26    2
     3    25    27    2
     4    25    18    1
     5    18    19   ar
     6    19    20   ar
     7    20    21   ar
     8    21    28    1
     9    28    29    1
    10    29    30    1
    11    30    31    1
    12    31    32    1
    13    21    22   ar
    14    22     1    1
    15     1     2    2
    16     1     3   am
    17     3     4    1
    18     4     5    1
    19     5     6    1
    20     6     9    1
    21     9    10   ar
    22    10    11   ar
    23    11    12   ar
    24    12    16    1
    25    16    17    3
    26    12    13   ar
    27    13    14   ar
    28    14    15    1
    29     6     7    1
    30     7     8    1
    31    22    23   ar
    32    23    18   ar
    33    32    30    1
    34     8     3    1
    35    14     9   ar
@<TRIPOS>MOLECULE
*****
 32 35 0 0 0
SMALL
GASTEIGER

@<TRIPOS>ATOM
      1 C         142.2040  142.5685  160.0319 C.2     1  UNL1        0.2521
      2 O         142.9767  143.6543  159.3435 O.2     1  UNL1       -0.2698
      3 N         142.1355  142.5308  161.5298 N.am    1  UNL1       -0.2725
      4 C         141.3627  141.4450  162.2182 C.3     1  UNL1        0.1151
      5 C         141.2942  141.4074  163.7162 C.3     1  UNL1        0.1124
      6 N         141.9985  142.4555  164.5258 N.pl3   1  UNL1       -0.3023
      7 C         142.7713  143.5413  163.8374 C.3     1  UNL1        0.1124
      8 C         142.8398  143.5790  162.3394 C.3     1  UNL1        0.1151
      9 C         141.9300  142.4178  166.0237 C.ar    1  UNL1        0.0758
     10 C         143.1810  142.2177  166.8269 C.ar    1  UNL1        0.0175
     11 C         143.1124  142.1800  168.3249 C.ar    1  UNL1        0.0117
     12 C         141.7930  142.3424  169.0196 C.ar    1  UNL1        0.0708
     13 C         140.5421  142.5426  168.2164 C.ar    1  UNL1        0.0412
     14 C         140.6106  142.5802  166.7185 C.ar    1  UNL1        0.1540
     15 F         139.3596  142.7804  165.9153 F       1  UNL1       -0.2028
     16 C         141.7245  142.3048  170.5176 C.1     1  UNL1        0.1005
     17 N         141.6561  142.2671  172.0156 N.1     1  UNL1       -0.1908
     18 C         141.5718  139.3312  157.8250 C.ar    1  UNL1        0.1061
     19 C         140.0912  139.4241  157.6031 C.ar    1  UNL1        0.0215
     20 C         139.3149  140.5651  158.1907 C.ar    1  UNL1        0.0384
     21 C         140.0191  141.6132  159.0003 C.ar    1  UNL1        0.1429
     22 C         141.4997  141.5203  159.2223 C.ar    1  UNL1        0.0887
     23 C         142.2760  140.3793  158.6346 C.ar    1  UNL1        0.0259
     24 C         143.1244  137.0491  156.6497 C.3     1  UNL1        0.1816
     25 S         142.3481  138.1901  157.2374 S.O2    1  UNL1        0.0105
     26 O         143.6103  138.7444  157.8286 O.2     1  UNL1       -0.1686
     27 O         141.0859  137.6359  156.6461 O.2     1  UNL1       -0.1686
     28 O         139.2428  142.7543  159.5880 O.3     1  UNL1       -0.4753
     29 C         138.2445  142.4996  160.6781 C.3     1  UNL1        0.2053
     30 C         138.2766  143.3225  161.9318 C.3     1  UNL1        0.0438
     31 C         138.9136  144.3936  162.7666 C.3     1  UNL1        0.0038
     32 C         137.6954  143.6766  163.2685 C.3     1  UNL1        0.0038
@<TRIPOS>BOND
     1    24    25    1
     2    25    26    2
     3    25    27    2
     4    25    18    1
     5    18    19   ar
     6    19    20   ar
     7    20    21   ar
     8    21    28    1
     9    28    29    1
    10    29    30    1
    11    30    31    1
    12    31    32    1
    13    21    22   ar
    14    22     1    1
    15     1     2    2
    16     1     3   am
    17     3     4    1
    18     4     5    1
    19     5     6    1
    20     6     9    1
    21     9    10   ar
    22    10    11   ar
    23    11    12   ar
    24    12    16    1
    25    16    17    3
    26    12    13   ar
    27    13    14   ar
    28    14    15    1
    29     6     7    1
    30     7     8    1
    31    22    23   ar
    32    23    18   ar
    33    32    30    1
    34     8     3    1
    35    14     9   ar
@<TRIPOS>MOLECULE
*****
 32 35 0 0 0
SMALL
GASTEIGER

@<TRIPOS>ATOM
      1 C         141.5496  144.0897  160.0764 C.2     1  UNL1        0.2521
      2 O         141.5388  145.5121  159.6003 O.2     1  UNL1       -0.2698
      3 N         141.5652  143.7909  161.5462 N.am    1  UNL1       -0.2725
      4 C         141.5760  142.3685  162.0223 C.3     1  UNL1        0.1151
      5 C         141.5916  142.0697  163.4922 C.3     1  UNL1        0.1124
      6 N         141.5963  143.1932  164.4860 N.pl3   1  UNL1       -0.3023
      7 C         141.5855  144.6156  164.0099 C.3     1  UNL1        0.1124
      8 C         141.5699  144.9145  162.5400 C.3     1  UNL1        0.1151
      9 C         141.6119  142.8944  165.9558 C.ar    1  UNL1        0.0758
     10 C         140.3509  143.0152  166.7591 C.ar    1  UNL1        0.0175
     11 C         140.3665  142.7163  168.2290 C.ar    1  UNL1        0.0117
     12 C         141.6431  142.2967  168.8955 C.ar    1  UNL1        0.0708
     13 C         142.9041  142.1760  168.0922 C.ar    1  UNL1        0.0412
     14 C         142.8885  142.4748  166.6224 C.ar    1  UNL1        0.1540
     15 F         144.1495  142.3541  165.8191 F       1  UNL1       -0.2028
     16 C         141.6587  141.9979  170.3653 C.1     1  UNL1        0.1005
     17 N         141.6743  141.6991  171.8352 N.1     1  UNL1       -0.1908
     18 C         142.8254  141.3918  157.4603 C.ar    1  UNL1        0.1061
     19 C         141.5355  140.7190  157.0951 C.ar    1  UNL1        0.0215
     20 C         140.2502  141.1698  157.7236 C.ar    1  UNL1        0.0384
     21 C         140.2549  142.2933  158.7174 C.ar    1  UNL1        0.1429
     22 C         141.5448  142.9661  159.0826 C.ar    1  UNL1        0.0887
     23 C         142.8301  142.5153  158.4541 C.ar    1  UNL1        0.0259
     24 C         145.3958  140.4903  156.2033 C.3     1  UNL1        0.1816
     25 S         144.1106  140.9410  156.8318 S.O2    1  UNL1        0.0105
     26 O         144.1941  142.2338  156.0755 O.2     1  UNL1       -0.1686
     27 O         144.0271  139.6483  157.5881 O.2     1  UNL1       -0.1686
     28 O         138.9697  142.7440  159.3459 O.3     1  UNL1       -0.4753
     29 C         138.3303  141.9169  160.4215 C.3     1  UNL1        0.2053
     30 C         138.0442  142.5231  161.7635 C.3     1  UNL1        0.0438
     31 C         137.5912  142.3752  163.1857 C.3     1  UNL1        0.0038
     32 C         138.0018  143.7208  162.6654 C.3     1  UNL1        0.0038
@<TRIPOS>BOND
     1    24    25    1
     2    25    26    2
     3    25    27    2
     4    25    18    1
     5    18    19   ar
     6    19    20   ar
     7    20    21   ar
     8    21    28    1
     9    28    29    1
    10    29    30    1
    11    30    31    1
    12    31    32    1
    13    21    22   ar
    14    22     1    1
    15     1     2    2
    16     1     3   am
    17     3     4    1
    18     4     5    1
    19     5     6    1
    20     6     9    1
    21     9    10   ar
    22    10    11   ar
    23    11    12   ar
    24    12    16    1
    25    16    17    3
    26    12    13   ar
    27    13    14   ar
    28    14    15    1
    29     6     7    1
    30     7     8    1
    31    22    23   ar
    32    23    18   ar
    33    32    30    1
    34     8     3    1
    35    14     9   ar
@<TRIPOS>MOLECULE
*****
 32 35 0 0 0
SMALL
GASTEIGER

@<TRIPOS>ATOM
      1 C         142.9662  139.9148  160.4958 C.2     1  UNL1        0.2521
      2 O         144.1565  139.0851  160.1152 O.2     1  UNL1       -0.2698
      3 N         142.6714  140.1847  161.9415 N.am    1  UNL1       -0.2725
      4 C         141.4811  141.0144  162.3221 C.3     1  UNL1        0.1151
      5 C         141.1863  141.2843  163.7679 C.3     1  UNL1        0.1124
      6 N         142.0818  140.7245  164.8331 N.pl3   1  UNL1       -0.3023
      7 C         143.2721  139.8948  164.4526 C.3     1  UNL1        0.1124
      8 C         143.5669  139.6249  163.0068 C.3     1  UNL1        0.1151
      9 C         141.7870  140.9944  166.2789 C.ar    1  UNL1        0.0758
     10 C         142.6284  141.9706  167.0463 C.ar    1  UNL1        0.0175
     11 C         142.3335  142.2405  168.4921 C.ar    1  UNL1        0.0117
     12 C         141.1974  141.5341  169.1704 C.ar    1  UNL1        0.0708
     13 C         140.3560  140.5578  168.4029 C.ar    1  UNL1        0.0412
     14 C         140.6508  140.2880  166.9572 C.ar    1  UNL1        0.1540
     15 F         139.8095  139.3117  166.1897 F       1  UNL1       -0.2028
     16 C         140.9026  141.8040  170.6161 C.1     1  UNL1        0.1005
     17 N         140.6077  142.0739  172.0620 N.1     1  UNL1       -0.1908
     18 C         141.5123  142.3427  157.7134 C.ar    1  UNL1        0.1061
     19 C         140.2798  141.5943  157.3001 C.ar    1  UNL1        0.0215
     20 C         139.9428  140.2861  157.9520 C.ar    1  UNL1        0.0384
     21 C         140.8382  139.7263  159.0172 C.ar    1  UNL1        0.1429
     22 C         142.0707  140.4747  159.4305 C.ar    1  UNL1        0.0887
     23 C         142.4077  141.7829  158.7786 C.ar    1  UNL1        0.0259
     24 C         142.1864  144.9592  156.4097 C.3     1  UNL1        0.1816
     25 S         141.8493  143.6510  157.0615 S.O2    1  UNL1        0.0105
     26 O         143.2700  143.2005  156.8921 O.2     1  UNL1       -0.1686
     27 O         140.4287  144.1014  157.2310 O.2     1  UNL1       -0.1686
     28 O         140.5012  138.4180  159.6691 O.3     1  UNL1       -0.4753
     29 C         139.3371  138.3272  160.6106 C.3     1  UNL1        0.2053
     30 C         139.5562  137.9181  162.0370 C.3     1  UNL1        0.0438
     31 C         140.4810  137.4952  163.1396 C.3     1  UNL1        0.0038
     32 C         139.0110  137.6323  163.4048 C.3     1  UNL1        0.0038
@<TRIPOS>BOND
     1    24    25    1
     2    25    26    2
     3    25    27    2
     4    25    18    1
     5    18    19   ar
     6    19    20   ar
     7    20    21   ar
     8    21    28    1
     9    28    29    1
    10    29    30    1
    11    30    31    1
    12    31    32    1
    13    21    22   ar
    14    22     1    1
    15     1     2    2
    16     1     3   am
    17     3     4    1
    18     4     5    1
    19     5     6    1
    20     6     9    1
    21     9    10   ar
    22    10    11   ar
    23    11    12   ar
    24    12    16    1
    25    16    17    3
    26    12    13   ar
    27    13    14   ar
    28    14    15    1
    29     6     7    1
    30     7     8    1
    31    22    23   ar
    32    23    18   ar
    33    32    30    1
    34     8     3    1
    35    14     9   ar
@<TRIPOS>MOLECULE
*****
 32 35 0 0 0
SMALL
GASTEIGER

@<TRIPOS>ATOM
      1 C         142.1547  139.9693  165.1388 C.2     1  UNL1        0.2521
      2 O         143.0920  138.8052  165.0107 O.2     1  UNL1       -0.2698
      3 N         141.8344  140.8098  163.9385 N.am    1  UNL1       -0.2725
      4 C         140.8971  141.9739  164.0665 C.3     1  UNL1        0.1151
      5 C         140.5768  142.8145  162.8661 C.3     1  UNL1        0.1124
      6 N         141.1937  142.4909  161.5377 N.pl3   1  UNL1       -0.3023
      7 C         142.1310  141.3268  161.4096 C.3     1  UNL1        0.1124
      8 C         142.4513  140.4863  162.6100 C.3     1  UNL1        0.1151
      9 C         140.8734  143.3314  160.3374 C.ar    1  UNL1        0.0758
     10 C         141.5080  144.6809  160.1757 C.ar    1  UNL1        0.0175
     11 C         141.1876  145.5215  158.9753 C.ar    1  UNL1        0.0117
     12 C         140.2326  145.0125  157.9366 C.ar    1  UNL1        0.0708
     13 C         139.5980  143.6630  158.0983 C.ar    1  UNL1        0.0412
     14 C         139.9183  142.8225  159.2986 C.ar    1  UNL1        0.1540
     15 F         139.2837  141.4730  159.4603 F       1  UNL1       -0.2028
     16 C         139.9123  145.8531  156.7363 C.1     1  UNL1        0.1005
     17 N         139.5920  146.6936  155.5359 N.1     1  UNL1       -0.1908
     18 C         141.6350  141.5239  168.7531 C.ar    1  UNL1        0.1061
     19 C         140.3041  140.9399  169.1241 C.ar    1  UNL1        0.0215
     20 C         139.5900  140.0324  168.1667 C.ar    1  UNL1        0.0384
     21 C         140.2069  139.7089  166.8383 C.ar    1  UNL1        0.1429
     22 C         141.5378  140.2928  166.4673 C.ar    1  UNL1        0.0887
     23 C         142.2518  141.2003  167.4247 C.ar    1  UNL1        0.0259
     24 C         143.0630  143.3389  170.6679 C.3     1  UNL1        0.1816
     25 S         142.3490  142.4314  169.7105 S.O2    1  UNL1        0.0105
     26 O         143.4573  142.6090  168.7155 O.2     1  UNL1       -0.1686
     27 O         141.2407  142.2537  170.7055 O.2     1  UNL1       -0.1686
     28 O         139.4929  138.8014  165.8809 O.3     1  UNL1       -0.4753
     29 C         138.4692  139.3614  164.9384 C.3     1  UNL1        0.2053
     30 C         138.5643  139.0723  163.4696 C.3     1  UNL1        0.0438
     31 C         138.8376  139.5358  162.0695 C.3     1  UNL1        0.0038
     32 C         138.4556  138.1081  162.3258 C.3     1  UNL1        0.0038
@<TRIPOS>BOND
     1    24    25    1
     2    25    26    2
     3    25    27    2
     4    25    18    1
     5    18    19   ar
     6    19    20   ar
     7    20    21   ar
     8    21    28    1
     9    28    29    1
    10    29    30    1
    11    30    31    1
    12    31    32    1
    13    21    22   ar
    14    22     1    1
    15     1     2    2
    16     1     3   am
    17     3     4    1
    18     4     5    1
    19     5     6    1
    20     6     9    1
    21     9    10   ar
    22    10    11   ar
    23    11    12   ar
    24    12    16    1
    25    16    17    3
    26    12    13   ar
    27    13    14   ar
    28    14    15    1
    29     6     7    1
    30     7     8    1
    31    22    23   ar
    32    23    18   ar
    33    32    30    1
    34     8     3    1
    35    14     9   ar
@<TRIPOS>MOLECULE
*****
 32 35 0 0 0
SMALL
GASTEIGER

@<TRIPOS>ATOM
      1 C         141.8762  139.1747  160.6648 C.2     1  UNL1        0.2521
      2 O         142.3518  137.7993  160.3012 O.2     1  UNL1       -0.2698
      3 N         141.6982  139.5501  162.1061 N.am    1  UNL1       -0.2725
      4 C         141.2226  140.9255  162.4696 C.3     1  UNL1        0.1151
      5 C         141.0447  141.3009  163.9110 C.3     1  UNL1        0.1124
      6 N         141.3424  140.3010  164.9887 N.pl3   1  UNL1       -0.3023
      7 C         141.8180  138.9256  164.6252 C.3     1  UNL1        0.1124
      8 C         141.9959  138.5502  163.1839 C.3     1  UNL1        0.1151
      9 C         141.1644  140.6764  166.4300 C.ar    1  UNL1        0.0758
     10 C         140.0107  140.1225  167.2124 C.ar    1  UNL1        0.0175
     11 C         139.8328  140.4980  168.6538 C.ar    1  UNL1        0.0117
     12 C         140.8086  141.4274  169.3126 C.ar    1  UNL1        0.0708
     13 C         141.9622  141.9813  168.5302 C.ar    1  UNL1        0.0412
     14 C         142.1402  141.6059  167.0889 C.ar    1  UNL1        0.1540
     15 F         143.2939  142.1598  166.3065 F       1  UNL1       -0.2028
     16 C         140.6306  141.8028  170.7539 C.1     1  UNL1        0.1005
     17 N         140.4526  142.1783  172.1953 N.1     1  UNL1       -0.1908
     18 C         139.9211  141.2131  157.8768 C.ar    1  UNL1        0.1061
     19 C         140.9830  142.1743  157.4315 C.ar    1  UNL1        0.0215
     20 C         142.3427  142.1357  158.0639 C.ar    1  UNL1        0.0384
     21 C         142.6404  141.1358  159.1416 C.ar    1  UNL1        0.1429
     22 C         141.5785  140.1746  159.5870 C.ar    1  UNL1        0.0887
     23 C         140.2189  140.2133  158.9546 C.ar    1  UNL1        0.0259
     24 C         137.2019  141.2904  156.6120 C.3     1  UNL1        0.1816
     25 S         138.5615  141.2517  157.2444 S.O2    1  UNL1        0.0105
     26 O         138.2462  139.9119  157.8406 O.2     1  UNL1       -0.1686
     27 O         138.8769  142.5916  156.6483 O.2     1  UNL1       -0.1686
     28 O         144.0000  141.0972  159.7740 O.3     1  UNL1       -0.4753
     29 C         144.3682  142.1043  160.8229 C.3     1  UNL1        0.2053
     30 C         144.8657  141.6453  162.1615 C.3     1  UNL1        0.0438
     31 C         144.9754  140.5790  163.2108 C.3     1  UNL1        0.0038
     32 C         145.6176  141.9166  163.4307 C.3     1  UNL1        0.0038
@<TRIPOS>BOND
     1    24    25    1
     2    25    26    2
     3    25    27    2
     4    25    18    1
     5    18    19   ar
     6    19    20   ar
     7    20    21   ar
     8    21    28    1
     9    28    29    1
    10    29    30    1
    11    30    31    1
    12    31    32    1
    13    21    22   ar
    14    22     1    1
    15     1     2    2
    16     1     3   am
    17     3     4    1
    18     4     5    1
    19     5     6    1
    20     6     9    1
    21     9    10   ar
    22    10    11   ar
    23    11    12   ar
    24    12    16    1
    25    16    17    3
    26    12    13   ar
    27    13    14   ar
    28    14    15    1
    29     6     7    1
    30     7     8    1
    31    22    23   ar
    32    23    18   ar
    33    32    30    1
    34     8     3    1
    35    14     9   ar
