@<TRIPOS>MOLECULE
*****
 36 40 0 0 0
SMALL
GASTEIGER

@<TRIPOS>ATOM
      1 C         139.4764  139.3631  166.2651 C.3     1  UNL1        0.0545
      2 C         139.0075  139.7260  167.6429 C.3     1  UNL1        0.0163
      3 C         140.2175  139.9721  168.4945 C.3     1  UNL1        0.0120
      4 C         140.6755  140.3485  169.8723 C.3     1  UNL1        0.0298
      5 C         142.1754  140.3704  169.8724 C.3     1  UNL1        0.1110
      6 O         143.0524  140.6977  171.0446 O.3     1  UNL1       -0.3844
      7 C         142.6443  140.0076  168.4946 C.3     1  UNL1        0.0379
      8 C         141.4343  139.7614  167.6430 C.3     1  UNL1        0.0728
      9 C         140.9762  139.3850  166.2651 C.3     1  UNL1        0.0244
     10 H         142.4995  140.8968  171.8164 H       1  UNL1        0.2103
     11 C         142.6510  139.5507  166.7915 C.2     1  UNL1        0.2251
     12 O         143.6116  138.4453  167.1163 O.2     1  UNL1       -0.2749
     13 N         142.9073  140.4453  165.6150 N.am    1  UNL1       -0.2750
     14 C         144.1240  140.2346  164.7635 C.3     1  UNL1        0.1000
     15 C         144.3802  141.1292  163.5871 C.3     1  UNL1        0.0670
     16 C         143.4197  142.2346  163.2622 C.ar    1  UNL1        0.0583
     17 N         143.6759  143.1293  162.0857 N.ar    1  UNL1       -0.2484
     18 C         142.7154  144.2346  161.7609 C.ar    1  UNL1        0.1023
     19 C         141.4986  144.4453  162.6124 C.ar    1  UNL1        0.0902
     20 C         141.2424  143.5507  163.7888 C.ar    1  UNL1        0.0040
     21 C         142.2030  142.4453  164.1137 C.ar    1  UNL1        0.0113
     22 C         141.9468  141.5507  165.2901 C.3     1  UNL1        0.1213
     23 C         140.5381  145.5507  162.2876 C.3     1  UNL1        0.4200
     24 F         139.5776  146.6561  161.9627 F       1  UNL1       -0.1658
     25 F         141.0934  145.6242  160.8961 F       1  UNL1       -0.1658
     26 F         139.9829  145.4772  163.6791 F       1  UNL1       -0.1658
     27 N         138.5994  139.0358  165.0929 N.3     1  UNL1       -0.2975
     28 H         139.0752  138.3047  164.5643 H       1  UNL1        0.1232
     29 C         138.0331  139.7649  162.6644 C.3     1  UNL1        0.1591
     30 C         137.6618  140.8369  161.6830 C.3     1  UNL1        0.1729
     31 O         137.4857  142.2518  162.1488 O.3     1  UNL1       -0.3511
     32 C         137.6808  142.5947  163.5961 C.3     1  UNL1        0.1437
     33 C         138.0521  141.5228  164.5774 C.3     1  UNL1        0.0503
     34 C         138.2282  140.1078  164.1115 C.3     1  UNL1        0.0865
     35 C         139.1621  138.0411  161.0820 C.3     1  UNL1        0.1742
     36 O         138.2092  138.3500  162.1986 O.3     1  UNL1       -0.3496
@<TRIPOS>BOND
     1    35    36    1
     2    36    29    1
     3    29    30    1
     4    30    31    1
     5    31    32    1
     6    32    33    1
     7    33    34    1
     8    34    27    1
     9     1    27    1
    10     1     2    1
    11     3     2    1
    12     3     4    1
    13     4     5    1
    14     5     6    1
    15     5     7    1
    16     7     8    1
    17     8    11    1
    18    11    12    2
    19    11    13   am
    20    13    14    1
    21    14    15    1
    22    15    16    1
    23    16    17   ar
    24    17    18   ar
    25    18    19   ar
    26    19    23    1
    27    23    24    1
    28    23    25    1
    29    23    26    1
    30    19    20   ar
    31    20    21   ar
    32    21    22    1
    33     8     9    1
    34    34    29    1
    35     9     1    1
    36     8     3    1
    37    22    13    1
    38    21    16   ar
    39    27    28    1
    40     6    10    1
@<TRIPOS>MOLECULE
*****
 36 40 0 0 0
SMALL
GASTEIGER

@<TRIPOS>ATOM
      1 C         139.2967  139.1068  166.3769 C.3     1  UNL1        0.0545
      2 C         138.7454  139.6227  167.6730 C.3     1  UNL1        0.0163
      3 C         139.8899  140.1509  168.4861 C.3     1  UNL1        0.0120
      4 C         140.2566  140.7962  169.7895 C.3     1  UNL1        0.0298
      5 C         141.7419  141.0055  169.8016 C.3     1  UNL1        0.1110
      6 O         142.5364  141.6224  170.9143 O.3     1  UNL1       -0.3844
      7 C         142.2932  140.4895  168.5055 C.3     1  UNL1        0.0379
      8 C         141.1487  139.9613  167.6924 C.3     1  UNL1        0.0728
      9 C         140.7820  139.3160  166.3890 C.3     1  UNL1        0.0244
     10 H         141.9402  141.8710  171.6380 H       1  UNL1        0.2103
     11 C         142.4073  139.7718  166.8989 C.2     1  UNL1        0.2251
     12 O         143.3868  138.7051  167.2896 O.2     1  UNL1       -0.2749
     13 N         142.6865  140.6489  165.7144 N.am    1  UNL1       -0.2750
     14 C         143.9451  140.4594  164.9208 C.3     1  UNL1        0.1000
     15 C         144.2242  141.3365  163.7365 C.3     1  UNL1        0.0670
     16 C         143.2447  142.4032  163.3458 C.ar    1  UNL1        0.0583
     17 N         143.5238  143.2803  162.1614 N.ar    1  UNL1       -0.2484
     18 C         142.5443  144.3470  161.7706 C.ar    1  UNL1        0.1023
     19 C         141.2856  144.5366  162.5643 C.ar    1  UNL1        0.0902
     20 C         141.0065  143.6594  163.7486 C.ar    1  UNL1        0.0040
     21 C         141.9860  142.5928  164.1394 C.ar    1  UNL1        0.0113
     22 C         141.7069  141.7156  165.3237 C.3     1  UNL1        0.1213
     23 C         140.3061  145.6033  162.1736 C.3     1  UNL1        0.4200
     24 F         139.3265  146.6700  161.7828 F       1  UNL1       -0.1658
     25 F         140.9623  145.7134  160.8292 F       1  UNL1       -0.1658
     26 F         139.6498  145.4931  163.5179 F       1  UNL1       -0.1658
     27 N         138.5022  138.4898  165.2642 N.3     1  UNL1       -0.2975
     28 H         138.5788  137.4786  165.3732 H       1  UNL1        0.1232
     29 C         138.6247  140.1796  163.2945 C.3     1  UNL1        0.1591
     30 C         138.9679  140.4885  161.8673 C.3     1  UNL1        0.1729
     31 O         139.5315  139.4164  160.9826 O.3     1  UNL1       -0.3511
     32 C         139.7521  138.0354  161.5250 C.3     1  UNL1        0.1437
     33 C         139.4090  137.7265  162.9522 C.3     1  UNL1        0.0503
     34 C         138.8453  138.7987  163.8370 C.3     1  UNL1        0.0865
     35 C         137.5465  142.5263  163.5786 C.3     1  UNL1        0.1742
     36 O         138.0611  141.2517  164.1793 O.3     1  UNL1       -0.3496
@<TRIPOS>BOND
     1    35    36    1
     2    36    29    1
     3    29    30    1
     4    30    31    1
     5    31    32    1
     6    32    33    1
     7    33    34    1
     8    34    27    1
     9     1    27    1
    10     1     2    1
    11     3     2    1
    12     3     4    1
    13     4     5    1
    14     5     6    1
    15     5     7    1
    16     7     8    1
    17     8    11    1
    18    11    12    2
    19    11    13   am
    20    13    14    1
    21    14    15    1
    22    15    16    1
    23    16    17   ar
    24    17    18   ar
    25    18    19   ar
    26    19    23    1
    27    23    24    1
    28    23    25    1
    29    23    26    1
    30    19    20   ar
    31    20    21   ar
    32    21    22    1
    33     8     9    1
    34    34    29    1
    35     9     1    1
    36     8     3    1
    37    22    13    1
    38    21    16   ar
    39    27    28    1
    40     6    10    1
@<TRIPOS>MOLECULE
*****
 36 40 0 0 0
SMALL
GASTEIGER

@<TRIPOS>ATOM
      1 C         139.3218  139.6137  167.6196 C.3     1  UNL1        0.0545
      2 C         138.2924  138.9206  166.7769 C.3     1  UNL1        0.0163
      3 C         138.9634  138.4470  165.5217 C.3     1  UNL1        0.0120
      4 C         138.7419  137.7260  164.2252 C.3     1  UNL1        0.0298
      5 C         140.0491  137.6806  163.4908 C.3     1  UNL1        0.1110
      6 O         140.2854  137.0525  162.1492 O.3     1  UNL1       -0.3844
      7 C         141.0785  138.3736  164.3335 C.3     1  UNL1        0.0379
      8 C         140.4075  138.8473  165.5886 C.3     1  UNL1        0.0728
      9 C         140.6290  139.5683  166.8852 C.3     1  UNL1        0.0244
     10 H         139.4559  136.6731  161.8193 H       1  UNL1        0.2103
     11 C         141.8515  139.2476  165.6556 C.2     1  UNL1        0.2251
     12 O         142.8503  138.3445  166.3167 O.2     1  UNL1       -0.2749
     13 N         142.2969  140.5510  165.0615 N.am    1  UNL1       -0.2750
     14 C         143.7409  140.9513  165.1284 C.3     1  UNL1        0.1000
     15 C         144.1861  142.2546  164.5343 C.3     1  UNL1        0.0670
     16 C         143.1874  143.1576  163.8732 C.ar    1  UNL1        0.0583
     17 N         143.6327  144.4610  163.2791 N.ar    1  UNL1       -0.2484
     18 C         142.6340  145.3640  162.6180 C.ar    1  UNL1        0.1023
     19 C         141.1899  144.9637  162.5510 C.ar    1  UNL1        0.0902
     20 C         140.7446  143.6604  163.1452 C.ar    1  UNL1        0.0040
     21 C         141.7434  142.7573  163.8063 C.ar    1  UNL1        0.0113
     22 C         141.2981  141.4540  164.4004 C.3     1  UNL1        0.1213
     23 C         140.1912  145.8667  161.8900 C.3     1  UNL1        0.4200
     24 F         139.1924  146.7697  161.2289 F       1  UNL1       -0.1658
     25 F         139.3438  145.8354  163.1273 F       1  UNL1       -0.1658
     26 F         141.0385  145.8980  160.6526 F       1  UNL1       -0.1658
     27 N         139.0855  140.2418  168.9611 N.3     1  UNL1       -0.2975
     28 H         138.2145  140.7679  168.8906 H       1  UNL1        0.1232
     29 C         141.3072  140.6189  170.2542 C.3     1  UNL1        0.1591
     30 C         142.3291  141.5494  170.8371 C.3     1  UNL1        0.1729
     31 O         142.1513  143.0334  170.7098 O.3     1  UNL1       -0.3511
     32 C         140.9516  143.5869  169.9996 C.3     1  UNL1        0.1437
     33 C         139.9296  142.6563  169.4167 C.3     1  UNL1        0.0503
     34 C         140.1074  141.1723  169.5440 C.3     1  UNL1        0.0865
     35 C         142.8235  138.5140  170.1117 C.3     1  UNL1        0.1742
     36 O         141.4849  139.1349  170.3814 O.3     1  UNL1       -0.3496
@<TRIPOS>BOND
     1    35    36    1
     2    36    29    1
     3    29    30    1
     4    30    31    1
     5    31    32    1
     6    32    33    1
     7    33    34    1
     8    34    27    1
     9     1    27    1
    10     1     2    1
    11     3     2    1
    12     3     4    1
    13     4     5    1
    14     5     6    1
    15     5     7    1
    16     7     8    1
    17     8    11    1
    18    11    12    2
    19    11    13   am
    20    13    14    1
    21    14    15    1
    22    15    16    1
    23    16    17   ar
    24    17    18   ar
    25    18    19   ar
    26    19    23    1
    27    23    24    1
    28    23    25    1
    29    23    26    1
    30    19    20   ar
    31    20    21   ar
    32    21    22    1
    33     8     9    1
    34    34    29    1
    35     9     1    1
    36     8     3    1
    37    22    13    1
    38    21    16   ar
    39    27    28    1
    40     6    10    1
@<TRIPOS>MOLECULE
*****
 36 40 0 0 0
SMALL
GASTEIGER

@<TRIPOS>ATOM
      1 C         142.9866  141.5585  166.6738 C.3     1  UNL1        0.0545
      2 C         143.3291  142.4943  167.7949 C.3     1  UNL1        0.0163
      3 C         142.1634  142.5339  168.7381 C.3     1  UNL1        0.0120
      4 C         141.6547  143.1368  170.0139 C.3     1  UNL1        0.0298
      5 C         140.2773  142.5981  170.2642 C.3     1  UNL1        0.1110
      6 O         139.3969  142.9359  171.4308 O.3     1  UNL1       -0.3844
      7 C         139.9347  141.6623  169.1430 C.3     1  UNL1        0.0379
      8 C         141.1004  141.6226  168.1999 C.3     1  UNL1        0.0728
      9 C         141.6092  141.0198  166.9240 C.3     1  UNL1        0.0244
     10 H         139.8553  143.5643  172.0104 H       1  UNL1        0.2103
     11 C         140.0375  140.7114  167.6616 C.2     1  UNL1        0.2251
     12 O         139.5766  139.5360  168.4716 O.2     1  UNL1       -0.2749
     13 N         139.4353  140.9755  166.3134 N.am    1  UNL1       -0.2750
     14 C         138.3724  140.0643  165.7751 C.3     1  UNL1        0.1000
     15 C         137.7703  140.3285  164.4269 C.3     1  UNL1        0.0670
     16 C         138.2312  141.5039  163.6170 C.ar    1  UNL1        0.0583
     17 N         137.6290  141.7680  162.2687 N.ar    1  UNL1       -0.2484
     18 C         138.0898  142.9434  161.4588 C.ar    1  UNL1        0.1023
     19 C         139.1528  143.8547  161.9971 C.ar    1  UNL1        0.0902
     20 C         139.7549  143.5905  163.3453 C.ar    1  UNL1        0.0040
     21 C         139.2941  142.4151  164.1552 C.ar    1  UNL1        0.0113
     22 C         139.8962  142.1510  165.5034 C.3     1  UNL1        0.1213
     23 C         139.6137  145.0301  161.1871 C.3     1  UNL1        0.4200
     24 F         140.0745  146.2056  160.3772 F       1  UNL1       -0.1658
     25 F         139.5303  145.9020  162.4049 F       1  UNL1       -0.1658
     26 F         139.6971  144.1583  159.9694 F       1  UNL1       -0.1658
     27 N         143.8669  141.2206  165.5071 N.3     1  UNL1       -0.2975
     28 H         144.8003  141.0513  165.8819 H       1  UNL1        0.1232
     29 C         144.5307  141.7277  163.0470 C.3     1  UNL1        0.1591
     30 C         144.6875  142.7033  161.9185 C.3     1  UNL1        0.1729
     31 O         144.3375  144.1477  162.1217 O.3     1  UNL1       -0.3511
     32 C         143.8306  144.6164  163.4534 C.3     1  UNL1        0.1437
     33 C         143.6737  143.6407  164.5819 C.3     1  UNL1        0.0503
     34 C         144.0238  142.1963  164.3787 C.3     1  UNL1        0.0865
     35 C         144.0650  139.4379  161.9111 C.3     1  UNL1        0.1742
     36 O         144.8807  140.2833  162.8438 O.3     1  UNL1       -0.3496
@<TRIPOS>BOND
     1    35    36    1
     2    36    29    1
     3    29    30    1
     4    30    31    1
     5    31    32    1
     6    32    33    1
     7    33    34    1
     8    34    27    1
     9     1    27    1
    10     1     2    1
    11     3     2    1
    12     3     4    1
    13     4     5    1
    14     5     6    1
    15     5     7    1
    16     7     8    1
    17     8    11    1
    18    11    12    2
    19    11    13   am
    20    13    14    1
    21    14    15    1
    22    15    16    1
    23    16    17   ar
    24    17    18   ar
    25    18    19   ar
    26    19    23    1
    27    23    24    1
    28    23    25    1
    29    23    26    1
    30    19    20   ar
    31    20    21   ar
    32    21    22    1
    33     8     9    1
    34    34    29    1
    35     9     1    1
    36     8     3    1
    37    22    13    1
    38    21    16   ar
    39    27    28    1
    40     6    10    1
@<TRIPOS>MOLECULE
*****
 36 40 0 0 0
SMALL
GASTEIGER

@<TRIPOS>ATOM
      1 C         143.1063  142.3271  159.8761 C.3     1  UNL1        0.0545
      2 C         141.8448  142.8842  159.2862 C.3     1  UNL1        0.0163
      3 C         141.3095  143.9197  160.2303 C.3     1  UNL1        0.0120
      4 C         140.1990  144.9040  160.4492 C.3     1  UNL1        0.0298
      5 C         140.4435  145.5952  161.7579 C.3     1  UNL1        0.1110
      6 O         139.5782  146.6571  162.3693 O.3     1  UNL1       -0.3844
      7 C         141.7051  145.0381  162.3477 C.3     1  UNL1        0.0379
      8 C         142.2403  144.0026  161.4037 C.3     1  UNL1        0.0728
      9 C         143.3508  143.0183  161.1848 C.3     1  UNL1        0.0244
     10 H         138.8242  146.8355  161.7857 H       1  UNL1        0.2103
     11 C         143.1711  144.0854  162.5770 C.2     1  UNL1        0.2251
     12 O         144.3994  144.9430  162.5009 O.2     1  UNL1       -0.2749
     13 N         142.8737  143.3105  163.8265 N.am    1  UNL1       -0.2750
     14 C         143.8045  143.3933  164.9998 C.3     1  UNL1        0.1000
     15 C         143.5070  142.6185  166.2492 C.3     1  UNL1        0.0670
     16 C         142.2787  141.7609  166.3253 C.ar    1  UNL1        0.0583
     17 N         141.9813  140.9860  167.5749 N.ar    1  UNL1       -0.2484
     18 C         140.7530  140.1284  167.6510 C.ar    1  UNL1        0.1023
     19 C         139.8222  140.0456  166.4775 C.ar    1  UNL1        0.0902
     20 C         140.1197  140.8204  165.2281 C.ar    1  UNL1        0.0040
     21 C         141.3479  141.6781  165.1520 C.ar    1  UNL1        0.0113
     22 C         141.6454  142.4529  163.9026 C.3     1  UNL1        0.1213
     23 C         138.5939  139.1879  166.5537 C.3     1  UNL1        0.4200
     24 F         137.3656  138.3303  166.6298 F       1  UNL1       -0.1658
     25 F         138.5178  139.4281  168.0323 F       1  UNL1       -0.1658
     26 F         138.6700  138.9478  165.0750 F       1  UNL1       -0.1658
     27 N         143.9716  141.2652  159.2647 N.3     1  UNL1       -0.2975
     28 H         143.9562  141.4173  158.2562 H       1  UNL1        0.1232
     29 C         143.9973  139.1666  160.7961 C.3     1  UNL1        0.1591
     30 C         143.6784  137.7182  161.0205 C.3     1  UNL1        0.1729
     31 O         143.0149  136.9199  159.9377 O.3     1  UNL1       -0.3511
     32 C         142.6702  137.5700  158.6305 C.3     1  UNL1        0.1437
     33 C         142.9891  139.0184  158.4062 C.3     1  UNL1        0.0503
     34 C         143.6527  139.8168  159.4890 C.3     1  UNL1        0.0865
     35 C         144.1688  139.8659  163.2925 C.3     1  UNL1        0.1742
     36 O         144.6609  139.9649  161.8789 O.3     1  UNL1       -0.3496
@<TRIPOS>BOND
     1    35    36    1
     2    36    29    1
     3    29    30    1
     4    30    31    1
     5    31    32    1
     6    32    33    1
     7    33    34    1
     8    34    27    1
     9     1    27    1
    10     1     2    1
    11     3     2    1
    12     3     4    1
    13     4     5    1
    14     5     6    1
    15     5     7    1
    16     7     8    1
    17     8    11    1
    18    11    12    2
    19    11    13   am
    20    13    14    1
    21    14    15    1
    22    15    16    1
    23    16    17   ar
    24    17    18   ar
    25    18    19   ar
    26    19    23    1
    27    23    24    1
    28    23    25    1
    29    23    26    1
    30    19    20   ar
    31    20    21   ar
    32    21    22    1
    33     8     9    1
    34    34    29    1
    35     9     1    1
    36     8     3    1
    37    22    13    1
    38    21    16   ar
    39    27    28    1
    40     6    10    1
@<TRIPOS>MOLECULE
*****
 36 40 0 0 0
SMALL
GASTEIGER

@<TRIPOS>ATOM
      1 C         139.3527  138.3500  165.1287 C.3     1  UNL1        0.0545
      2 C         138.4657  138.8100  166.2474 C.3     1  UNL1        0.0163
      3 C         139.3202  139.5222  167.2537 C.3     1  UNL1        0.0120
      4 C         139.3001  140.2466  168.5670 C.3     1  UNL1        0.0298
      5 C         140.7029  140.6745  168.8818 C.3     1  UNL1        0.1110
      6 O         141.1416  141.4298  170.1014 O.3     1  UNL1       -0.3844
      7 C         141.5900  140.2145  167.7631 C.3     1  UNL1        0.0379
      8 C         140.7354  139.5023  166.7569 C.3     1  UNL1        0.0728
      9 C         140.7555  138.7779  165.4436 C.3     1  UNL1        0.0244
     10 H         140.3733  141.6047  170.6671 H       1  UNL1        0.2103
     11 C         142.1506  139.4825  166.2601 C.2     1  UNL1        0.2251
     12 O         143.1296  138.4955  166.8236 O.2     1  UNL1       -0.2749
     13 N         142.5869  140.4497  165.1997 N.am    1  UNL1       -0.2750
     14 C         144.0021  140.4298  164.7029 C.3     1  UNL1        0.1000
     15 C         144.4383  141.3969  163.6425 C.3     1  UNL1        0.0670
     16 C         143.4593  142.3839  163.0790 C.ar    1  UNL1        0.0583
     17 N         143.8956  143.3511  162.0186 N.ar    1  UNL1       -0.2484
     18 C         142.9166  144.3380  161.4551 C.ar    1  UNL1        0.1023
     19 C         141.5014  144.3578  161.9520 C.ar    1  UNL1        0.0902
     20 C         141.0652  143.3907  163.0123 C.ar    1  UNL1        0.0040
     21 C         142.0441  142.4038  163.5758 C.ar    1  UNL1        0.0113
     22 C         141.6079  141.4366  164.6362 C.3     1  UNL1        0.1213
     23 C         140.5224  145.3448  161.3885 C.3     1  UNL1        0.4200
     24 F         139.5435  146.3318  160.8249 F       1  UNL1       -0.1658
     25 F         140.7012  146.2130  162.5985 F       1  UNL1       -0.1658
     26 F         140.3436  144.4766  160.1784 F       1  UNL1       -0.1658
     27 N         138.9141  137.5947  163.9092 N.3     1  UNL1       -0.2975
     28 H         139.5240  136.7808  163.8317 H       1  UNL1        0.1232
     29 C         140.0989  138.1164  161.6566 C.3     1  UNL1        0.1591
     30 C         140.1024  138.7893  160.3161 C.3     1  UNL1        0.1729
     31 O         138.9248  139.6136  159.8875 O.3     1  UNL1       -0.3511
     32 C         137.7435  139.7649  160.7995 C.3     1  UNL1        0.1437
     33 C         137.7399  139.0919  162.1401 C.3     1  UNL1        0.0503
     34 C         138.9176  138.2677  162.5686 C.3     1  UNL1        0.0865
     35 C         142.5917  137.9547  162.3706 C.3     1  UNL1        0.1742
     36 O         141.2765  137.2921  162.0852 O.3     1  UNL1       -0.3496
@<TRIPOS>BOND
     1    35    36    1
     2    36    29    1
     3    29    30    1
     4    30    31    1
     5    31    32    1
     6    32    33    1
     7    33    34    1
     8    34    27    1
     9     1    27    1
    10     1     2    1
    11     3     2    1
    12     3     4    1
    13     4     5    1
    14     5     6    1
    15     5     7    1
    16     7     8    1
    17     8    11    1
    18    11    12    2
    19    11    13   am
    20    13    14    1
    21    14    15    1
    22    15    16    1
    23    16    17   ar
    24    17    18   ar
    25    18    19   ar
    26    19    23    1
    27    23    24    1
    28    23    25    1
    29    23    26    1
    30    19    20   ar
    31    20    21   ar
    32    21    22    1
    33     8     9    1
    34    34    29    1
    35     9     1    1
    36     8     3    1
    37    22    13    1
    38    21    16   ar
    39    27    28    1
    40     6    10    1
@<TRIPOS>MOLECULE
*****
 36 40 0 0 0
SMALL
GASTEIGER

@<TRIPOS>ATOM
      1 C         139.8007  140.8235  166.9069 C.3     1  UNL1        0.0545
      2 C         139.6382  139.7956  167.9872 C.3     1  UNL1        0.0163
      3 C         140.8458  139.8608  168.8746 C.3     1  UNL1        0.0120
      4 C         141.4917  139.2659  170.0906 C.3     1  UNL1        0.0298
      5 C         142.7997  139.9665  170.3104 C.3     1  UNL1        0.1110
      6 O         143.7742  139.6880  171.4163 O.3     1  UNL1       -0.3844
      7 C         142.9622  140.9944  169.2301 C.3     1  UNL1        0.0379
      8 C         141.7546  140.9291  168.3427 C.3     1  UNL1        0.0728
      9 C         141.1087  141.5241  167.1267 C.3     1  UNL1        0.0244
     10 H         143.4301  138.9767  171.9789 H       1  UNL1        0.2103
     11 C         142.6634  141.9974  167.8109 C.2     1  UNL1        0.2251
     12 O         143.0172  143.1764  168.6682 O.2     1  UNL1       -0.2749
     13 N         143.2185  141.8867  166.4218 N.am    1  UNL1       -0.2750
     14 C         144.1273  142.9550  165.8899 C.3     1  UNL1        0.1000
     15 C         144.6824  142.8443  164.5009 C.3     1  UNL1        0.0670
     16 C         144.3286  141.6653  163.6436 C.ar    1  UNL1        0.0583
     17 N         144.8838  141.5546  162.2544 N.ar    1  UNL1       -0.2484
     18 C         144.5300  140.3757  161.3972 C.ar    1  UNL1        0.1023
     19 C         143.6212  139.3074  161.9291 C.ar    1  UNL1        0.0902
     20 C         143.0661  139.4181  163.3181 C.ar    1  UNL1        0.0040
     21 C         143.4199  140.5971  164.1754 C.ar    1  UNL1        0.0113
     22 C         142.8648  140.7078  165.5645 C.3     1  UNL1        0.1213
     23 C         143.2674  138.1284  161.0718 C.3     1  UNL1        0.4200
     24 F         142.9137  136.9494  160.2145 F       1  UNL1       -0.1658
     25 F         144.0197  138.7363  159.9253 F       1  UNL1       -0.1658
     26 F         142.5151  137.5205  162.2183 F       1  UNL1       -0.1658
     27 N         138.8262  141.1020  165.8010 N.3     1  UNL1       -0.2975
     28 H         137.8982  141.1204  166.2239 H       1  UNL1        0.1232
     29 C         137.9321  140.5629  163.4220 C.3     1  UNL1        0.1591
     30 C         137.8522  139.6395  162.2426 C.3     1  UNL1        0.1729
     31 O         138.5866  138.3318  162.2628 O.3     1  UNL1       -0.3511
     32 C         139.4009  137.9474  163.4625 C.3     1  UNL1        0.1437
     33 C         139.4808  138.8708  164.6419 C.3     1  UNL1        0.0503
     34 C         138.7464  140.1786  164.6216 C.3     1  UNL1        0.0865
     35 C         137.8374  143.0806  162.7878 C.3     1  UNL1        0.1742
     36 O         137.1977  141.8706  163.4017 O.3     1  UNL1       -0.3496
@<TRIPOS>BOND
     1    35    36    1
     2    36    29    1
     3    29    30    1
     4    30    31    1
     5    31    32    1
     6    32    33    1
     7    33    34    1
     8    34    27    1
     9     1    27    1
    10     1     2    1
    11     3     2    1
    12     3     4    1
    13     4     5    1
    14     5     6    1
    15     5     7    1
    16     7     8    1
    17     8    11    1
    18    11    12    2
    19    11    13   am
    20    13    14    1
    21    14    15    1
    22    15    16    1
    23    16    17   ar
    24    17    18   ar
    25    18    19   ar
    26    19    23    1
    27    23    24    1
    28    23    25    1
    29    23    26    1
    30    19    20   ar
    31    20    21   ar
    32    21    22    1
    33     8     9    1
    34    34    29    1
    35     9     1    1
    36     8     3    1
    37    22    13    1
    38    21    16   ar
    39    27    28    1
    40     6    10    1
@<TRIPOS>MOLECULE
*****
 36 40 0 0 0
SMALL
GASTEIGER

@<TRIPOS>ATOM
      1 C         140.7511  141.2128  161.5706 C.3     1  UNL1        0.0545
      2 C         139.5591  142.0049  161.1215 C.3     1  UNL1        0.0163
      3 C         139.8024  143.4443  161.4664 C.3     1  UNL1        0.0120
      4 C         139.2161  144.8234  161.4021 C.3     1  UNL1        0.0298
      5 C         140.1960  145.7732  162.0246 C.3     1  UNL1        0.1110
      6 O         140.0156  147.2551  162.1721 O.3     1  UNL1       -0.3844
      7 C         141.3880  144.9811  162.4737 C.3     1  UNL1        0.0379
      8 C         141.1448  143.5418  162.1288 C.3     1  UNL1        0.0728
      9 C         141.7311  142.1626  162.1931 C.3     1  UNL1        0.0244
     10 H         139.1584  147.5151  161.8001 H       1  UNL1        0.2103
     11 C         142.4871  143.6392  162.7910 C.2     1  UNL1        0.2251
     12 O         143.6709  144.1385  162.0169 O.2     1  UNL1       -0.2749
     13 N         142.6456  143.2373  164.2275 N.am    1  UNL1       -0.2750
     14 C         143.9879  143.3348  164.8898 C.3     1  UNL1        0.1000
     15 C         144.1464  142.9329  166.3263 C.3     1  UNL1        0.0670
     16 C         142.9626  142.4336  167.1004 C.ar    1  UNL1        0.0583
     17 N         143.1211  142.0317  168.5369 N.ar    1  UNL1       -0.2484
     18 C         141.9373  141.5324  169.3110 C.ar    1  UNL1        0.1023
     19 C         140.5949  141.4350  168.6486 C.ar    1  UNL1        0.0902
     20 C         140.4364  141.8369  167.2122 C.ar    1  UNL1        0.0040
     21 C         141.6203  142.3362  166.4381 C.ar    1  UNL1        0.0113
     22 C         141.4618  142.7380  165.0017 C.3     1  UNL1        0.1213
     23 C         139.4111  140.9357  169.4227 C.3     1  UNL1        0.4200
     24 F         138.2273  140.4364  170.1969 F       1  UNL1       -0.1658
     25 F         139.3992  142.2044  170.2229 F       1  UNL1       -0.1658
     26 F         139.4229  139.6670  168.6226 F       1  UNL1       -0.1658
     27 N         140.9315  139.7309  161.4231 N.3     1  UNL1       -0.2975
     28 H         140.3356  139.4374  160.6490 H       1  UNL1        0.1232
     29 C         141.7099  137.9689  163.1664 C.3     1  UNL1        0.1591
     30 C         141.4040  137.0578  164.3181 C.3     1  UNL1        0.1729
     31 O         140.0138  136.9977  164.8781 O.3     1  UNL1       -0.3511
     32 C         138.9294  137.8487  164.2864 C.3     1  UNL1        0.1437
     33 C         139.2353  138.7598  163.1347 C.3     1  UNL1        0.0503
     34 C         140.6256  138.8198  162.5747 C.3     1  UNL1        0.0865
     35 C         144.0656  139.0631  163.1053 C.3     1  UNL1        0.1742
     36 O         143.1001  138.0290  162.6064 O.3     1  UNL1       -0.3496
@<TRIPOS>BOND
     1    35    36    1
     2    36    29    1
     3    29    30    1
     4    30    31    1
     5    31    32    1
     6    32    33    1
     7    33    34    1
     8    34    27    1
     9     1    27    1
    10     1     2    1
    11     3     2    1
    12     3     4    1
    13     4     5    1
    14     5     6    1
    15     5     7    1
    16     7     8    1
    17     8    11    1
    18    11    12    2
    19    11    13   am
    20    13    14    1
    21    14    15    1
    22    15    16    1
    23    16    17   ar
    24    17    18   ar
    25    18    19   ar
    26    19    23    1
    27    23    24    1
    28    23    25    1
    29    23    26    1
    30    19    20   ar
    31    20    21   ar
    32    21    22    1
    33     8     9    1
    34    34    29    1
    35     9     1    1
    36     8     3    1
    37    22    13    1
    38    21    16   ar
    39    27    28    1
    40     6    10    1
@<TRIPOS>MOLECULE
*****
 36 40 0 0 0
SMALL
GASTEIGER

@<TRIPOS>ATOM
      1 C         142.2667  139.2203  166.7148 C.3     1  UNL1        0.0545
      2 C         142.6632  138.1236  165.7714 C.3     1  UNL1        0.0163
      3 C         141.5905  137.9971  164.7306 C.3     1  UNL1        0.0120
      4 C         141.1726  137.2411  163.5043 C.3     1  UNL1        0.0298
      5 C         139.8548  137.7924  163.0465 C.3     1  UNL1        0.1110
      6 O         139.0711  137.3284  161.8546 O.3     1  UNL1       -0.3844
      7 C         139.4583  138.8891  163.9899 C.3     1  UNL1        0.0379
      8 C         140.5310  139.0156  165.0307 C.3     1  UNL1        0.0728
      9 C         140.9489  139.7716  166.2570 C.3     1  UNL1        0.0244
     10 H         139.5482  136.6074  161.4147 H       1  UNL1        0.2103
     11 C         139.4715  140.0341  165.3309 C.2     1  UNL1        0.2251
     12 O         138.5258  139.8178  166.4749 O.2     1  UNL1       -0.2749
     13 N         139.3577  141.2690  164.4869 N.am    1  UNL1       -0.2750
     14 C         138.2982  142.2875  164.7871 C.3     1  UNL1        0.1000
     15 C         138.1844  143.5223  163.9431 C.3     1  UNL1        0.0670
     16 C         139.1301  143.7386  162.7990 C.ar    1  UNL1        0.0583
     17 N         139.0162  144.9735  161.9551 N.ar    1  UNL1       -0.2484
     18 C         139.9619  145.1898  160.8110 C.ar    1  UNL1        0.1023
     19 C         141.0214  144.1712  160.5109 C.ar    1  UNL1        0.0902
     20 C         141.1352  142.9364  161.3548 C.ar    1  UNL1        0.0040
     21 C         140.1895  142.7201  162.4989 C.ar    1  UNL1        0.0113
     22 C         140.3033  141.4853  163.3428 C.3     1  UNL1        0.1213
     23 C         141.9671  144.3875  159.3668 C.3     1  UNL1        0.4200
     24 F         142.9128  144.6038  158.2227 F       1  UNL1       -0.1658
     25 F         142.9042  143.3713  159.9492 F       1  UNL1       -0.1658
     26 F         141.0300  145.4037  158.7844 F       1  UNL1       -0.1658
     27 N         143.0504  139.6843  167.9067 N.3     1  UNL1       -0.2975
     28 H         143.3450  138.8471  168.4095 H       1  UNL1        0.1232
     29 C         142.7194  142.0618  168.9007 C.3     1  UNL1        0.1591
     30 C         142.0823  142.9710  169.9094 C.3     1  UNL1        0.1729
     31 O         141.1392  142.4118  170.9330 O.3     1  UNL1       -0.3511
     32 C         140.8331  140.9434  170.9479 C.3     1  UNL1        0.1437
     33 C         141.4701  140.0342  169.9391 C.3     1  UNL1        0.0503
     34 C         142.4133  140.5935  168.9155 C.3     1  UNL1        0.0865
     35 C         143.2375  142.7229  166.4421 C.3     1  UNL1        0.1742
     36 O         143.6625  142.6210  167.8771 O.3     1  UNL1       -0.3496
@<TRIPOS>BOND
     1    35    36    1
     2    36    29    1
     3    29    30    1
     4    30    31    1
     5    31    32    1
     6    32    33    1
     7    33    34    1
     8    34    27    1
     9     1    27    1
    10     1     2    1
    11     3     2    1
    12     3     4    1
    13     4     5    1
    14     5     6    1
    15     5     7    1
    16     7     8    1
    17     8    11    1
    18    11    12    2
    19    11    13   am
    20    13    14    1
    21    14    15    1
    22    15    16    1
    23    16    17   ar
    24    17    18   ar
    25    18    19   ar
    26    19    23    1
    27    23    24    1
    28    23    25    1
    29    23    26    1
    30    19    20   ar
    31    20    21   ar
    32    21    22    1
    33     8     9    1
    34    34    29    1
    35     9     1    1
    36     8     3    1
    37    22    13    1
    38    21    16   ar
    39    27    28    1
    40     6    10    1
