@<TRIPOS>MOLECULE
*****
 28 30 0 0 0
SMALL
GASTEIGER

@<TRIPOS>ATOM
      1 C         139.7559  140.3597  167.1354 C.ar    1  UNL1        0.0858
      2 C         140.9001  141.2825  167.4341 C.ar    1  UNL1        0.0399
      3 C         141.2360  141.6251  168.8553 C.ar    1  UNL1        0.1032
      4 N         142.3802  142.5479  169.1540 N.ar    1  UNL1       -0.2405
      5 C         142.7161  142.8904  170.5752 C.ar    1  UNL1        0.1195
      6 C         141.9077  142.3102  171.6977 C.ar    1  UNL1        0.1196
      7 N         140.7635  141.3875  171.3990 N.ar    1  UNL1       -0.2379
      8 C         140.4277  141.0449  169.9778 C.ar    1  UNL1        0.1302
      9 C         139.2834  140.1221  169.6791 C.ar    1  UNL1        0.1477
     10 N         138.9475  139.7795  168.2579 N.ar    1  UNL1       -0.2292
     11 C         138.7481  139.3320  162.8718 C.ar    1  UNL1        0.1318
     12 C         139.6252  138.4189  163.6762 C.ar    1  UNL1        0.0344
     13 C         139.9611  138.7615  165.0974 C.ar    1  UNL1        0.0059
     14 C         139.4199  140.0171  165.7142 C.ar    1  UNL1        0.0370
     15 C         138.5428  140.9302  164.9098 C.ar    1  UNL1        0.1018
     16 N         138.2069  140.5876  163.4886 N.ar    1  UNL1       -0.2291
     17 C         137.1983  139.5859  160.8021 C.3     1  UNL1        0.1136
     18 N         138.4122  138.9894  161.4506 N.pl3   1  UNL1       -0.2897
     19 C         139.2902  138.0502  160.6779 C.3     1  UNL1        0.1136
     20 N         138.4751  139.5419  170.8016 N.pl3   1  UNL1       -0.3169
     21 H         138.9280  139.1352  171.5753 H       1  UNL1        0.1482
     22 C         136.9767  139.5813  170.7451 C.3     1  UNL1        0.0883
     23 C         136.1842  138.3291  170.9779 C.3     1  UNL1        0.0226
     24 C         135.6133  138.0443  172.3355 C.3     1  UNL1        0.0186
     25 C         136.2190  136.9740  173.1943 C.3     1  UNL1        0.0652
     26 N         135.7875  135.5468  173.0299 N.3     1  UNL1       -0.3211
     27 H         134.8097  135.4535  173.3051 H       1  UNL1        0.1189
     28 H         136.3652  134.9470  173.6189 H       1  UNL1        0.1189
@<TRIPOS>BOND
     1    17    18    1
     2    18    19    1
     3    18    11    1
     4    11    12   ar
     5    12    13   ar
     6    13    14   ar
     7    14     1    1
     8     1     2   ar
     9     2     3   ar
    10     3     4   ar
    11     4     5   ar
    12     5     6   ar
    13     6     7   ar
    14     7     8   ar
    15     8     9   ar
    16     9    20    1
    17    20    22    1
    18    22    23    1
    19    23    24    1
    20    24    25    1
    21    25    26    1
    22     9    10   ar
    23    14    15   ar
    24    15    16   ar
    25    16    11   ar
    26    10     1   ar
    27     8     3   ar
    28    20    21    1
    29    26    27    1
    30    26    28    1
@<TRIPOS>MOLECULE
*****
 28 30 0 0 0
SMALL
GASTEIGER

@<TRIPOS>ATOM
      1 C         140.4993  141.9232  166.0645 C.ar    1  UNL1        0.0858
      2 C         141.2822  142.4498  167.2305 C.ar    1  UNL1        0.0399
      3 C         141.1155  141.8310  168.5868 C.ar    1  UNL1        0.1032
      4 N         141.8983  142.3577  169.7528 N.ar    1  UNL1       -0.2405
      5 C         141.7316  141.7389  171.1090 C.ar    1  UNL1        0.1195
      6 C         140.7821  140.5934  171.2991 C.ar    1  UNL1        0.1196
      7 N         139.9992  140.0667  170.1331 N.ar    1  UNL1       -0.2379
      8 C         140.1659  140.6855  168.7769 C.ar    1  UNL1        0.1302
      9 C         139.3831  140.1588  167.6108 C.ar    1  UNL1        0.1477
     10 N         139.5498  140.7776  166.2546 N.ar    1  UNL1       -0.2292
     11 C         140.9993  143.7795  161.9959 C.ar    1  UNL1        0.1318
     12 C         140.7893  144.6521  163.1977 C.ar    1  UNL1        0.0344
     13 C         140.6227  144.0334  164.5539 C.ar    1  UNL1        0.0059
     14 C         140.6660  142.5420  164.7083 C.ar    1  UNL1        0.0370
     15 C         140.8759  141.6694  163.5064 C.ar    1  UNL1        0.1018
     16 N         141.0426  142.2881  162.1502 N.ar    1  UNL1       -0.2291
     17 C         142.1629  143.8304  159.6735 C.3     1  UNL1        0.1136
     18 N         141.1660  144.3983  160.6396 N.pl3   1  UNL1       -0.2897
     19 C         140.3357  145.5851  160.2496 C.3     1  UNL1        0.1136
     20 N         138.4335  139.0133  167.8009 N.pl3   1  UNL1       -0.3169
     21 H         138.2708  138.6533  168.7027 H       1  UNL1        0.1482
     22 C         137.7319  138.4163  166.6172 C.3     1  UNL1        0.0883
     23 C         138.3742  137.2990  165.8496 C.3     1  UNL1        0.0226
     24 C         139.4382  137.6002  164.8359 C.3     1  UNL1        0.0186
     25 C         139.0809  138.3031  163.5599 C.3     1  UNL1        0.0652
     26 N         138.4107  137.5484  162.4502 N.3     1  UNL1       -0.3211
     27 H         139.0505  136.8437  162.0835 H       1  UNL1        0.1189
     28 H         138.1547  138.1960  161.7048 H       1  UNL1        0.1189
@<TRIPOS>BOND
     1    17    18    1
     2    18    19    1
     3    18    11    1
     4    11    12   ar
     5    12    13   ar
     6    13    14   ar
     7    14     1    1
     8     1     2   ar
     9     2     3   ar
    10     3     4   ar
    11     4     5   ar
    12     5     6   ar
    13     6     7   ar
    14     7     8   ar
    15     8     9   ar
    16     9    20    1
    17    20    22    1
    18    22    23    1
    19    23    24    1
    20    24    25    1
    21    25    26    1
    22     9    10   ar
    23    14    15   ar
    24    15    16   ar
    25    16    11   ar
    26    10     1   ar
    27     8     3   ar
    28    20    21    1
    29    26    27    1
    30    26    28    1
@<TRIPOS>MOLECULE
*****
 28 30 0 0 0
SMALL
GASTEIGER

@<TRIPOS>ATOM
      1 C         141.1909  139.3897  165.0301 C.ar    1  UNL1        0.0858
      2 C         142.5101  139.4178  164.3168 C.ar    1  UNL1        0.0399
      3 C         142.6385  138.8065  162.9529 C.ar    1  UNL1        0.1032
      4 N         143.9577  138.8346  162.2396 N.ar    1  UNL1       -0.2405
      5 C         144.0860  138.2234  160.8758 C.ar    1  UNL1        0.1195
      6 C         142.8951  137.5841  160.2254 C.ar    1  UNL1        0.1196
      7 N         141.5759  137.5561  160.9387 N.ar    1  UNL1       -0.2379
      8 C         141.4476  138.1673  162.3024 C.ar    1  UNL1        0.1302
      9 C         140.1283  138.1392  163.0158 C.ar    1  UNL1        0.1477
     10 N         140.0000  138.7505  164.3796 N.ar    1  UNL1       -0.2292
     11 C         140.8059  141.2234  169.1214 C.ar    1  UNL1        0.1318
     12 C         139.6564  140.4634  168.5290 C.ar    1  UNL1        0.0344
     13 C         139.7847  139.8522  167.1652 C.ar    1  UNL1        0.0059
     14 C         141.0625  140.0009  166.3939 C.ar    1  UNL1        0.0370
     15 C         142.2121  140.7609  166.9864 C.ar    1  UNL1        0.1018
     16 N         142.0838  141.3721  168.3501 N.ar    1  UNL1       -0.2291
     17 C         139.6975  142.9456  170.7200 C.3     1  UNL1        0.1136
     18 N         140.6776  141.8346  170.4853 N.pl3   1  UNL1       -0.2897
     19 C         141.5293  141.3348  171.6143 C.3     1  UNL1        0.1136
     20 N         138.9374  137.5000  162.3654 N.pl3   1  UNL1       -0.3169
     21 H         138.8717  136.5190  162.3145 H       1  UNL1        0.1482
     22 C         137.8466  138.3554  161.7923 C.3     1  UNL1        0.0883
     23 C         138.1656  139.3669  160.7317 C.3     1  UNL1        0.0226
     24 C         138.0758  140.8319  161.0411 C.3     1  UNL1        0.0186
     25 C         138.0287  141.2958  162.4669 C.3     1  UNL1        0.0652
     26 N         136.7127  141.3967  163.1796 N.3     1  UNL1       -0.3211
     27 H         136.1454  142.1242  162.7446 H       1  UNL1        0.1189
     28 H         136.8737  141.6312  164.1591 H       1  UNL1        0.1189
@<TRIPOS>BOND
     1    17    18    1
     2    18    19    1
     3    18    11    1
     4    11    12   ar
     5    12    13   ar
     6    13    14   ar
     7    14     1    1
     8     1     2   ar
     9     2     3   ar
    10     3     4   ar
    11     4     5   ar
    12     5     6   ar
    13     6     7   ar
    14     7     8   ar
    15     8     9   ar
    16     9    20    1
    17    20    22    1
    18    22    23    1
    19    23    24    1
    20    24    25    1
    21    25    26    1
    22     9    10   ar
    23    14    15   ar
    24    15    16   ar
    25    16    11   ar
    26    10     1   ar
    27     8     3   ar
    28    20    21    1
    29    26    27    1
    30    26    28    1
@<TRIPOS>MOLECULE
*****
 28 30 0 0 0
SMALL
GASTEIGER

@<TRIPOS>ATOM
      1 C         140.7580  142.8996  164.0637 C.ar    1  UNL1        0.0858
      2 C         141.5163  143.7974  163.1315 C.ar    1  UNL1        0.0399
      3 C         141.0237  144.0125  161.7311 C.ar    1  UNL1        0.1032
      4 N         141.7820  144.9103  160.7990 N.ar    1  UNL1       -0.2405
      5 C         141.2894  145.1254  159.3986 C.ar    1  UNL1        0.1195
      6 C         140.0385  144.4428  158.9304 C.ar    1  UNL1        0.1196
      7 N         139.2802  143.5450  159.8625 N.ar    1  UNL1       -0.2379
      8 C         139.7728  143.3299  161.2629 C.ar    1  UNL1        0.1302
      9 C         139.0145  142.4320  162.1951 C.ar    1  UNL1        0.1477
     10 N         139.5071  142.2169  163.5954 N.ar    1  UNL1       -0.2292
     11 C         142.2357  142.2541  168.2648 C.ar    1  UNL1        0.1318
     12 C         140.7787  142.5063  168.0127 C.ar    1  UNL1        0.0344
     13 C         140.2861  142.7214  166.6123 C.ar    1  UNL1        0.0059
     14 C         141.2505  142.6844  165.4641 C.ar    1  UNL1        0.0370
     15 C         142.7075  142.4322  165.7162 C.ar    1  UNL1        0.1018
     16 N         143.2001  142.2171  167.1166 N.ar    1  UNL1       -0.2291
     17 C         142.9209  143.2112  170.5809 C.3     1  UNL1        0.1136
     18 N         142.7283  142.0389  169.6652 N.pl3   1  UNL1       -0.2897
     19 C         143.0282  140.6514  170.1499 C.3     1  UNL1        0.1136
     20 N         137.7636  141.7493  161.7268 N.pl3   1  UNL1       -0.3169
     21 H         136.9058  142.2323  161.7375 H       1  UNL1        0.1482
     22 C         137.8197  140.3309  161.2424 C.3     1  UNL1        0.0883
     23 C         138.0432  139.2135  162.2178 C.3     1  UNL1        0.0226
     24 C         139.0340  138.1316  161.9048 C.3     1  UNL1        0.0186
     25 C         139.9115  137.5815  162.9899 C.3     1  UNL1        0.0652
     26 N         141.2575  137.0134  162.6502 N.3     1  UNL1       -0.3211
     27 H         141.1389  136.1732  162.0842 H       1  UNL1        0.1189
     28 H         141.7536  136.7772  163.5096 H       1  UNL1        0.1189
@<TRIPOS>BOND
     1    17    18    1
     2    18    19    1
     3    18    11    1
     4    11    12   ar
     5    12    13   ar
     6    13    14   ar
     7    14     1    1
     8     1     2   ar
     9     2     3   ar
    10     3     4   ar
    11     4     5   ar
    12     5     6   ar
    13     6     7   ar
    14     7     8   ar
    15     8     9   ar
    16     9    20    1
    17    20    22    1
    18    22    23    1
    19    23    24    1
    20    24    25    1
    21    25    26    1
    22     9    10   ar
    23    14    15   ar
    24    15    16   ar
    25    16    11   ar
    26    10     1   ar
    27     8     3   ar
    28    20    21    1
    29    26    27    1
    30    26    28    1
@<TRIPOS>MOLECULE
*****
 28 30 0 0 0
SMALL
GASTEIGER

@<TRIPOS>ATOM
      1 C         139.3846  142.0586  164.4883 C.ar    1  UNL1        0.0858
      2 C         139.2783  140.9074  163.5327 C.ar    1  UNL1        0.0399
      3 C         138.9307  141.1559  162.0948 C.ar    1  UNL1        0.1032
      4 N         138.8245  140.0047  161.1391 N.ar    1  UNL1       -0.2405
      5 C         138.4769  140.2532  159.7013 C.ar    1  UNL1        0.1195
      6 C         138.2356  141.6529  159.2191 C.ar    1  UNL1        0.1196
      7 N         138.3419  142.8042  160.1748 N.ar    1  UNL1       -0.2379
      8 C         138.6894  142.5556  161.6126 C.ar    1  UNL1        0.1302
      9 C         138.7957  143.7069  162.5684 C.ar    1  UNL1        0.1477
     10 N         139.1433  143.4584  164.0062 N.ar    1  UNL1       -0.2292
     11 C         140.4273  141.3131  168.8019 C.ar    1  UNL1        0.1318
     12 C         140.6710  142.6624  168.1938 C.ar    1  UNL1        0.0344
     13 C         140.3234  142.9110  166.7560 C.ar    1  UNL1        0.0059
     14 C         139.7322  141.8101  165.9262 C.ar    1  UNL1        0.0370
     15 C         139.4884  140.4608  166.5344 C.ar    1  UNL1        0.1018
     16 N         139.8360  140.2122  167.9722 N.ar    1  UNL1       -0.2291
     17 C         140.1599  139.9083  170.9711 C.3     1  UNL1        0.1136
     18 N         140.7748  141.0646  170.2398 N.pl3   1  UNL1       -0.2897
     19 C         141.7374  141.9724  170.9464 C.3     1  UNL1        0.1136
     20 N         138.5544  145.1066  162.0862 N.pl3   1  UNL1       -0.3169
     21 H         137.6356  145.4551  162.0262 H       1  UNL1        0.1482
     22 C         139.7130  145.9755  161.6955 C.3     1  UNL1        0.0883
     23 C         140.6866  145.5046  160.6561 C.3     1  UNL1        0.0226
     24 C         141.7941  144.5669  161.0361 C.3     1  UNL1        0.0186
     25 C         142.3846  144.6229  162.4138 C.3     1  UNL1        0.0652
     26 N         143.7972  145.0892  162.6060 N.3     1  UNL1       -0.3211
     27 H         144.4370  144.4232  162.1730 H       1  UNL1        0.1189
     28 H         144.0003  145.1566  163.6033 H       1  UNL1        0.1189
@<TRIPOS>BOND
     1    17    18    1
     2    18    19    1
     3    18    11    1
     4    11    12   ar
     5    12    13   ar
     6    13    14   ar
     7    14     1    1
     8     1     2   ar
     9     2     3   ar
    10     3     4   ar
    11     4     5   ar
    12     5     6   ar
    13     6     7   ar
    14     7     8   ar
    15     8     9   ar
    16     9    20    1
    17    20    22    1
    18    22    23    1
    19    23    24    1
    20    24    25    1
    21    25    26    1
    22     9    10   ar
    23    14    15   ar
    24    15    16   ar
    25    16    11   ar
    26    10     1   ar
    27     8     3   ar
    28    20    21    1
    29    26    27    1
    30    26    28    1
@<TRIPOS>MOLECULE
*****
 28 30 0 0 0
SMALL
GASTEIGER

@<TRIPOS>ATOM
      1 C         142.8234  141.8858  163.8212 C.ar    1  UNL1        0.0858
      2 C         143.3120  140.8828  162.8186 C.ar    1  UNL1        0.0399
      3 C         143.4105  141.2577  161.3695 C.ar    1  UNL1        0.1032
      4 N         143.8990  140.2547  160.3668 N.ar    1  UNL1       -0.2405
      5 C         143.9975  140.6297  158.9178 C.ar    1  UNL1        0.1195
      6 C         143.6074  142.0076  158.4714 C.ar    1  UNL1        0.1196
      7 N         143.1189  143.0106  159.4741 N.ar    1  UNL1       -0.2379
      8 C         143.0204  142.6356  160.9231 C.ar    1  UNL1        0.1302
      9 C         142.5319  143.6386  161.9258 C.ar    1  UNL1        0.1477
     10 N         142.4334  143.2637  163.3748 N.ar    1  UNL1       -0.2292
     11 C         142.5279  140.7610  168.1683 C.ar    1  UNL1        0.1318
     12 C         142.9888  142.1342  167.7786 C.ar    1  UNL1        0.0344
     13 C         143.0873  142.5091  166.3296 C.ar    1  UNL1        0.0059
     14 C         142.7249  141.5108  165.2703 C.ar    1  UNL1        0.0370
     15 C         142.2640  140.1377  165.6600 C.ar    1  UNL1        0.1018
     16 N         142.1655  139.7627  167.1090 N.ar    1  UNL1       -0.2291
     17 C         142.5016  138.9445  170.0257 C.3     1  UNL1        0.1136
     18 N         142.4294  140.3861  169.6174 N.pl3   1  UNL1       -0.2897
     19 C         142.2586  141.4527  170.6581 C.3     1  UNL1        0.1136
     20 N         142.1419  145.0165  161.4795 N.pl3   1  UNL1       -0.3169
     21 H         142.8292  145.7139  161.3776 H       1  UNL1        0.1482
     22 C         140.7046  145.3318  161.1883 C.3     1  UNL1        0.0883
     23 C         139.8087  145.8279  162.2844 C.3     1  UNL1        0.0226
     24 C         139.1993  144.8572  163.2521 C.3     1  UNL1        0.0186
     25 C         137.8152  144.3302  163.0143 C.3     1  UNL1        0.0652
     26 N         137.5763  143.3052  161.9455 N.3     1  UNL1       -0.3211
     27 H         137.7612  143.7179  161.0312 H       1  UNL1        0.1189
     28 H         136.6069  142.9905  161.9868 H       1  UNL1        0.1189
@<TRIPOS>BOND
     1    17    18    1
     2    18    19    1
     3    18    11    1
     4    11    12   ar
     5    12    13   ar
     6    13    14   ar
     7    14     1    1
     8     1     2   ar
     9     2     3   ar
    10     3     4   ar
    11     4     5   ar
    12     5     6   ar
    13     6     7   ar
    14     7     8   ar
    15     8     9   ar
    16     9    20    1
    17    20    22    1
    18    22    23    1
    19    23    24    1
    20    24    25    1
    21    25    26    1
    22     9    10   ar
    23    14    15   ar
    24    15    16   ar
    25    16    11   ar
    26    10     1   ar
    27     8     3   ar
    28    20    21    1
    29    26    27    1
    30    26    28    1
@<TRIPOS>MOLECULE
*****
 28 30 0 0 0
SMALL
GASTEIGER

@<TRIPOS>ATOM
      1 C         139.9711  140.5128  164.3838 C.ar    1  UNL1        0.0858
      2 C         140.2344  139.5123  163.2977 C.ar    1  UNL1        0.0399
      3 C         139.6818  139.7365  161.9213 C.ar    1  UNL1        0.1032
      4 N         139.9451  138.7360  160.8353 N.ar    1  UNL1       -0.2405
      5 C         139.3925  138.9604  159.4589 C.ar    1  UNL1        0.1195
      6 C         138.5767  140.1852  159.1687 C.ar    1  UNL1        0.1196
      7 N         138.3134  141.1857  160.2548 N.ar    1  UNL1       -0.2379
      8 C         138.8660  140.9614  161.6311 C.ar    1  UNL1        0.1302
      9 C         138.6027  141.9619  162.7173 C.ar    1  UNL1        0.1477
     10 N         139.1553  141.7376  164.0936 N.ar    1  UNL1       -0.2292
     11 C         141.6287  139.8400  168.5130 C.ar    1  UNL1        0.1318
     12 C         142.4326  139.4474  167.3089 C.ar    1  UNL1        0.0344
     13 C         141.8801  139.6717  165.9326 C.ar    1  UNL1        0.0059
     14 C         140.5237  140.2885  165.7602 C.ar    1  UNL1        0.0370
     15 C         139.7198  140.6810  166.9643 C.ar    1  UNL1        0.1018
     16 N         140.2724  140.4568  168.3406 N.ar    1  UNL1       -0.2291
     17 C         142.8373  138.3107  170.2307 C.3     1  UNL1        0.1136
     18 N         142.1813  139.6157  169.8894 N.pl3   1  UNL1       -0.2897
     19 C         142.0779  140.6965  170.9243 C.3     1  UNL1        0.1136
     20 N         137.7869  143.1867  162.4271 N.pl3   1  UNL1       -0.3169
     21 H         137.0792  143.1562  161.7433 H       1  UNL1        0.1482
     22 C         138.0492  144.4580  163.1786 C.3     1  UNL1        0.0883
     23 C         139.3762  145.1454  163.0496 C.3     1  UNL1        0.0226
     24 C         139.6798  145.9676  161.8323 C.3     1  UNL1        0.0186
     25 C         140.2720  145.3178  160.6169 C.3     1  UNL1        0.0652
     26 N         139.5576  144.1786  159.9523 N.3     1  UNL1       -0.3211
     27 H         139.5373  143.3763  160.5819 H       1  UNL1        0.1189
     28 H         140.0469  143.9248  159.0940 H       1  UNL1        0.1189
@<TRIPOS>BOND
     1    17    18    1
     2    18    19    1
     3    18    11    1
     4    11    12   ar
     5    12    13   ar
     6    13    14   ar
     7    14     1    1
     8     1     2   ar
     9     2     3   ar
    10     3     4   ar
    11     4     5   ar
    12     5     6   ar
    13     6     7   ar
    14     7     8   ar
    15     8     9   ar
    16     9    20    1
    17    20    22    1
    18    22    23    1
    19    23    24    1
    20    24    25    1
    21    25    26    1
    22     9    10   ar
    23    14    15   ar
    24    15    16   ar
    25    16    11   ar
    26    10     1   ar
    27     8     3   ar
    28    20    21    1
    29    26    27    1
    30    26    28    1
@<TRIPOS>MOLECULE
*****
 28 30 0 0 0
SMALL
GASTEIGER

@<TRIPOS>ATOM
      1 C         142.1629  141.9112  164.8697 C.ar    1  UNL1        0.0858
      2 C         143.0587  142.4024  165.9679 C.ar    1  UNL1        0.0399
      3 C         142.7213  142.1074  167.3995 C.ar    1  UNL1        0.1032
      4 N         143.6171  142.5987  168.4977 N.ar    1  UNL1       -0.2405
      5 C         143.2797  142.3037  169.9292 C.ar    1  UNL1        0.1195
      6 C         142.0465  141.5174  170.2624 C.ar    1  UNL1        0.1196
      7 N         141.1507  141.0261  169.1641 N.ar    1  UNL1       -0.2379
      8 C         141.4881  141.3211  167.7327 C.ar    1  UNL1        0.1302
      9 C         140.5923  140.8299  166.6344 C.ar    1  UNL1        0.1477
     10 N         140.9297  141.1249  165.2029 N.ar    1  UNL1       -0.2292
     11 C         143.1750  142.7962  160.5753 C.ar    1  UNL1        0.1318
     12 C         142.6752  141.4362  160.9631 C.ar    1  UNL1        0.0344
     13 C         142.3378  141.1411  162.3945 C.ar    1  UNL1        0.0059
     14 C         142.5002  142.2062  163.4382 C.ar    1  UNL1        0.0370
     15 C         143.0000  143.5663  163.0504 C.ar    1  UNL1        0.1018
     16 N         143.3374  143.8613  161.6189 N.ar    1  UNL1       -0.2291
     17 C         144.7465  142.5023  158.5273 C.3     1  UNL1        0.1136
     18 N         143.5123  143.0913  159.1437 N.pl3   1  UNL1       -0.2897
     19 C         142.6155  143.9752  158.3287 C.3     1  UNL1        0.1136
     20 N         139.3591  140.0436  166.9676 N.pl3   1  UNL1       -0.3169
     21 H         139.0928  139.9204  167.9073 H       1  UNL1        0.1482
     22 C         138.5317  139.4450  165.8690 C.3     1  UNL1        0.0883
     23 C         138.7821  138.0343  165.4249 C.3     1  UNL1        0.0226
     24 C         139.6929  137.7639  164.2641 C.3     1  UNL1        0.0186
     25 C         141.0755  137.2335  164.5033 C.3     1  UNL1        0.0652
     26 N         142.1486  138.1438  165.0225 N.3     1  UNL1       -0.3211
     27 H         142.3578  138.8563  164.3231 H       1  UNL1        0.1189
     28 H         142.9900  137.6011  165.2172 H       1  UNL1        0.1189
@<TRIPOS>BOND
     1    17    18    1
     2    18    19    1
     3    18    11    1
     4    11    12   ar
     5    12    13   ar
     6    13    14   ar
     7    14     1    1
     8     1     2   ar
     9     2     3   ar
    10     3     4   ar
    11     4     5   ar
    12     5     6   ar
    13     6     7   ar
    14     7     8   ar
    15     8     9   ar
    16     9    20    1
    17    20    22    1
    18    22    23    1
    19    23    24    1
    20    24    25    1
    21    25    26    1
    22     9    10   ar
    23    14    15   ar
    24    15    16   ar
    25    16    11   ar
    26    10     1   ar
    27     8     3   ar
    28    20    21    1
    29    26    27    1
    30    26    28    1
@<TRIPOS>MOLECULE
*****
 28 30 0 0 0
SMALL
GASTEIGER

@<TRIPOS>ATOM
      1 C         142.5697  141.3374  160.1338 C.ar    1  UNL1        0.0858
      2 C         143.2606  141.1974  161.4578 C.ar    1  UNL1        0.0399
      3 C         143.4430  142.3974  162.3392 C.ar    1  UNL1        0.1032
      4 N         144.1339  142.2573  163.6632 N.ar    1  UNL1       -0.2405
      5 C         144.3162  143.4573  164.5446 C.ar    1  UNL1        0.1195
      6 C         143.8077  144.7972  164.1020 C.ar    1  UNL1        0.1196
      7 N         143.1168  144.9372  162.7780 N.ar    1  UNL1       -0.2379
      8 C         142.9345  143.7373  161.8966 C.ar    1  UNL1        0.1302
      9 C         142.2435  143.8773  160.5726 C.ar    1  UNL1        0.1477
     10 N         142.0612  142.6774  159.6912 N.ar    1  UNL1       -0.2292
     11 C         142.0227  137.7376  157.4895 C.ar    1  UNL1        0.1318
     12 C         141.2546  138.9958  157.2120 C.ar    1  UNL1        0.0344
     13 C         141.4369  140.1957  158.0934 C.ar    1  UNL1        0.0059
     14 C         142.3874  140.1375  159.2523 C.ar    1  UNL1        0.0370
     15 C         143.1555  138.8793  159.5299 C.ar    1  UNL1        0.1018
     16 N         142.9731  137.6794  158.6485 N.ar    1  UNL1       -0.2291
     17 C         142.8157  135.4003  156.6783 C.3     1  UNL1        0.1136
     18 N         141.8403  136.5377  156.6081 N.pl3   1  UNL1       -0.2897
     19 C         140.6826  136.4752  155.6564 C.3     1  UNL1        0.1136
     20 N         141.7350  145.2173  160.1299 N.pl3   1  UNL1       -0.3169
     21 H         142.3469  145.8595  159.7029 H       1  UNL1        0.1482
     22 C         140.2942  145.5787  160.3380 C.3     1  UNL1        0.0883
     23 C         139.8358  146.0980  161.6685 C.3     1  UNL1        0.0226
     24 C         139.2466  145.1578  162.6780 C.3     1  UNL1        0.0186
     25 C         138.9776  143.7299  162.3056 C.3     1  UNL1        0.0652
     26 N         137.6343  143.3355  161.7672 N.3     1  UNL1       -0.3211
     27 H         136.9278  143.4587  162.4925 H       1  UNL1        0.1189
     28 H         137.6577  142.3577  161.4779 H       1  UNL1        0.1189
@<TRIPOS>BOND
     1    17    18    1
     2    18    19    1
     3    18    11    1
     4    11    12   ar
     5    12    13   ar
     6    13    14   ar
     7    14     1    1
     8     1     2   ar
     9     2     3   ar
    10     3     4   ar
    11     4     5   ar
    12     5     6   ar
    13     6     7   ar
    14     7     8   ar
    15     8     9   ar
    16     9    20    1
    17    20    22    1
    18    22    23    1
    19    23    24    1
    20    24    25    1
    21    25    26    1
    22     9    10   ar
    23    14    15   ar
    24    15    16   ar
    25    16    11   ar
    26    10     1   ar
    27     8     3   ar
    28    20    21    1
    29    26    27    1
    30    26    28    1
