@<TRIPOS>MOLECULE
*****
 34 38 0 0 0
SMALL
GASTEIGER

@<TRIPOS>ATOM
      1 C         140.9249  142.0882  168.4367 C.ar    1  UNL1       -0.0199
      2 C         141.8642  140.9201  168.3813 C.ar    1  UNL1        0.0269
      3 C         142.3034  140.3730  167.0555 C.ar    1  UNL1        0.1573
      4 F         143.2428  139.2048  167.0001 F       1  UNL1       -0.2026
      5 C         141.8033  140.9941  165.7850 C.ar    1  UNL1        0.1097
      6 N         142.2425  140.4470  164.4592 N.ar    1  UNL1       -0.2283
      7 C         141.7424  141.0681  163.1887 C.ar    1  UNL1        0.1359
      8 C         140.8031  142.2363  163.2441 C.ar    1  UNL1        0.0837
      9 C         140.3639  142.7834  164.5699 C.ar    1  UNL1       -0.0130
     10 C         139.4246  143.9515  164.6253 C.3     1  UNL1        0.0313
     11 C         140.8640  142.1622  165.8404 C.ar    1  UNL1        0.0159
     12 C         140.4248  142.7093  167.1662 C.ar    1  UNL1       -0.0029
     13 N         142.1816  140.5211  161.8629 N.pl3   1  UNL1       -0.2930
     14 C         141.4635  139.3503  161.2596 C.3     1  UNL1        0.0935
     15 C         141.9027  138.8033  159.9337 C.3     1  UNL1        0.0372
     16 C         143.0600  139.4269  159.2112 C.3     1  UNL1        0.0574
     17 C         143.7780  140.5976  159.8146 C.3     1  UNL1        0.0372
     18 C         143.3388  141.1446  161.1404 C.3     1  UNL1        0.0935
     19 N         143.4992  138.8799  157.8854 N.3     1  UNL1       -0.2994
     20 H         144.3409  138.3302  158.0579 H       1  UNL1        0.1232
     21 C         142.5714  138.0122  157.0875 C.3     1  UNL1        0.0590
     22 C         141.3913  138.6199  156.3890 C.3     1  UNL1        0.0478
     23 C         140.4635  137.7523  155.5911 C.3     1  UNL1        0.1435
     24 O         140.7159  136.2770  155.4919 O.3     1  UNL1       -0.3537
     25 C         141.8961  135.6693  156.1905 C.3     1  UNL1        0.1435
     26 C         142.8238  136.5370  156.9883 C.3     1  UNL1        0.0478
     27 C         140.3029  142.8574  161.9736 C.ar    1  UNL1        0.2621
     28 N         140.9484  143.9907  161.2326 N.ar    1  UNL1       -0.1910
     29 C         140.1140  144.2880  160.0221 C.ar    1  UNL1        0.1812
     30 C         140.3919  145.3485  158.9984 C.3     1  UNL1        0.0773
     31 N         138.9527  143.3384  160.0150 N.ar    1  UNL1       -0.0602
     32 O         139.0696  142.4543  161.2211 O.2     1  UNL1       -0.3327
     33 C         140.4853  144.1164  169.9998 C.3     1  UNL1        0.0050
     34 C         140.4857  142.6353  169.7625 C.3     1  UNL1        0.0264
@<TRIPOS>BOND
     1    33    34    1
     2    34     1    1
     3     1     2   ar
     4     2     3   ar
     5     3     4    1
     6     3     5   ar
     7     5     6   ar
     8     6     7   ar
     9     7    13    1
    10    13    14    1
    11    14    15    1
    12    15    16    1
    13    16    19    1
    14    19    21    1
    15    21    22    1
    16    22    23    1
    17    23    24    1
    18    24    25    1
    19    25    26    1
    20    16    17    1
    21    17    18    1
    22     7     8   ar
    23     8    27    1
    24    27    28   ar
    25    28    29   ar
    26    29    30    1
    27    29    31   ar
    28    31    32   ar
    29     8     9   ar
    30     9    10    1
    31     9    11   ar
    32    11    12   ar
    33    12     1   ar
    34    11     5   ar
    35    18    13    1
    36    32    27   ar
    37    26    21    1
    38    19    20    1
@<TRIPOS>MOLECULE
*****
 34 38 0 0 0
SMALL
GASTEIGER

@<TRIPOS>ATOM
      1 C         142.1391  140.5392  168.9289 C.ar    1  UNL1       -0.0199
      2 C         143.2413  141.5296  168.6962 C.ar    1  UNL1        0.0269
      3 C         143.3135  142.2805  167.3997 C.ar    1  UNL1        0.1573
      4 F         144.4158  143.2710  167.1671 F       1  UNL1       -0.2026
      5 C         142.2837  142.0409  166.3358 C.ar    1  UNL1        0.1097
      6 N         142.3559  142.7918  165.0393 N.ar    1  UNL1       -0.2283
      7 C         141.3260  142.5522  163.9754 C.ar    1  UNL1        0.1359
      8 C         140.2238  141.5616  164.2080 C.ar    1  UNL1        0.0837
      9 C         140.1515  140.8108  165.5046 C.ar    1  UNL1       -0.0130
     10 C         139.0494  139.8203  165.7372 C.3     1  UNL1        0.0313
     11 C         141.1815  141.0504  166.5685 C.ar    1  UNL1        0.0159
     12 C         141.1093  140.2995  167.8650 C.ar    1  UNL1       -0.0029
     13 N         141.3983  143.3030  162.6789 N.pl3   1  UNL1       -0.2930
     14 C         140.5674  144.5358  162.4788 C.3     1  UNL1        0.0935
     15 C         140.6397  145.2867  161.1823 C.3     1  UNL1        0.0372
     16 C         141.5428  144.8048  160.0859 C.3     1  UNL1        0.0574
     17 C         142.3736  143.5721  160.2859 C.3     1  UNL1        0.0372
     18 C         142.3014  142.8212  161.5825 C.3     1  UNL1        0.0935
     19 N         141.6151  145.5557  158.7893 N.3     1  UNL1       -0.2994
     20 H         142.5013  145.3032  158.3519 H       1  UNL1        0.1232
     21 C         140.5495  145.3638  157.7511 C.3     1  UNL1        0.0590
     22 C         140.0322  146.5423  156.9807 C.3     1  UNL1        0.0478
     23 C         138.9666  146.3505  155.9425 C.3     1  UNL1        0.1435
     24 O         138.4183  144.9801  155.6748 O.3     1  UNL1       -0.3537
     25 C         138.9357  143.8017  156.4453 C.3     1  UNL1        0.1435
     26 C         140.0012  143.9935  157.4835 C.3     1  UNL1        0.0478
     27 C         139.1939  141.3220  163.1442 C.ar    1  UNL1        0.2621
     28 N         139.3916  140.5243  161.8893 N.ar    1  UNL1       -0.1910
     29 C         138.1054  140.5473  161.1179 C.ar    1  UNL1        0.1812
     30 C         137.8556  139.8762  159.7999 C.3     1  UNL1        0.0773
     31 N         137.1127  141.3593  161.8961 N.ar    1  UNL1       -0.0602
     32 O         137.7855  141.8381  163.1483 O.2     1  UNL1       -0.3327
     33 C         142.6909  138.4292  170.3407 C.3     1  UNL1        0.0050
     34 C         142.0669  139.7883  170.2254 C.3     1  UNL1        0.0264
@<TRIPOS>BOND
     1    33    34    1
     2    34     1    1
     3     1     2   ar
     4     2     3   ar
     5     3     4    1
     6     3     5   ar
     7     5     6   ar
     8     6     7   ar
     9     7    13    1
    10    13    14    1
    11    14    15    1
    12    15    16    1
    13    16    19    1
    14    19    21    1
    15    21    22    1
    16    22    23    1
    17    23    24    1
    18    24    25    1
    19    25    26    1
    20    16    17    1
    21    17    18    1
    22     7     8   ar
    23     8    27    1
    24    27    28   ar
    25    28    29   ar
    26    29    30    1
    27    29    31   ar
    28    31    32   ar
    29     8     9   ar
    30     9    10    1
    31     9    11   ar
    32    11    12   ar
    33    12     1   ar
    34    11     5   ar
    35    18    13    1
    36    32    27   ar
    37    26    21    1
    38    19    20    1
@<TRIPOS>MOLECULE
*****
 34 38 0 0 0
SMALL
GASTEIGER

@<TRIPOS>ATOM
      1 C         142.2114  139.8849  169.2780 C.ar    1  UNL1       -0.0199
      2 C         141.4362  141.1522  169.4848 C.ar    1  UNL1        0.0269
      3 C         141.0569  142.0001  168.3070 C.ar    1  UNL1        0.1573
      4 F         140.2817  143.2675  168.5139 F       1  UNL1       -0.2026
      5 C         141.4529  141.5807  166.9224 C.ar    1  UNL1        0.1097
      6 N         141.0737  142.4286  165.7446 N.ar    1  UNL1       -0.2283
      7 C         141.4696  142.0092  164.3599 C.ar    1  UNL1        0.1359
      8 C         142.2449  140.7418  164.1531 C.ar    1  UNL1        0.0837
      9 C         142.6241  139.8939  165.3309 C.ar    1  UNL1       -0.0130
     10 C         143.3993  138.6265  165.1241 C.3     1  UNL1        0.0313
     11 C         142.2281  140.3134  166.7156 C.ar    1  UNL1        0.0159
     12 C         142.6074  139.4654  167.8934 C.ar    1  UNL1       -0.0029
     13 N         141.0904  142.8571  163.1821 N.pl3   1  UNL1       -0.2930
     14 C         139.7554  142.6720  162.5235 C.3     1  UNL1        0.0935
     15 C         139.3762  143.5199  161.3457 C.3     1  UNL1        0.0372
     16 C         140.3319  144.5529  160.8265 C.3     1  UNL1        0.0574
     17 C         141.6668  144.7380  161.4851 C.3     1  UNL1        0.0372
     18 C         142.0461  143.8901  162.6629 C.3     1  UNL1        0.0935
     19 N         139.9527  145.4008  159.6487 N.3     1  UNL1       -0.2994
     20 H         140.2864  146.3444  159.8455 H       1  UNL1        0.1232
     21 C         140.4462  145.0441  158.2778 C.3     1  UNL1        0.0590
     22 C         141.5724  145.8193  157.6609 C.3     1  UNL1        0.0478
     23 C         142.0659  145.4626  156.2900 C.3     1  UNL1        0.1435
     24 O         141.4332  144.3306  155.5361 O.3     1  UNL1       -0.3537
     25 C         140.3069  143.5554  156.1532 C.3     1  UNL1        0.1435
     26 C         139.8135  143.9121  157.5240 C.3     1  UNL1        0.0478
     27 C         142.6409  140.3223  162.7684 C.ar    1  UNL1        0.2621
     28 N         141.7940  139.5415  161.8076 N.ar    1  UNL1       -0.1910
     29 C         142.5830  139.3467  160.5469 C.ar    1  UNL1        0.1812
     30 C         142.1190  138.6191  159.3199 C.3     1  UNL1        0.0773
     31 N         143.9175  140.0071  160.7285 N.ar    1  UNL1       -0.0602
     32 O         143.9533  140.6101  162.1015 O.2     1  UNL1       -0.3327
     33 C         143.2697  137.7167  170.2419 C.3     1  UNL1        0.0050
     34 C         142.5906  139.0370  170.4558 C.3     1  UNL1        0.0264
@<TRIPOS>BOND
     1    33    34    1
     2    34     1    1
     3     1     2   ar
     4     2     3   ar
     5     3     4    1
     6     3     5   ar
     7     5     6   ar
     8     6     7   ar
     9     7    13    1
    10    13    14    1
    11    14    15    1
    12    15    16    1
    13    16    19    1
    14    19    21    1
    15    21    22    1
    16    22    23    1
    17    23    24    1
    18    24    25    1
    19    25    26    1
    20    16    17    1
    21    17    18    1
    22     7     8   ar
    23     8    27    1
    24    27    28   ar
    25    28    29   ar
    26    29    30    1
    27    29    31   ar
    28    31    32   ar
    29     8     9   ar
    30     9    10    1
    31     9    11   ar
    32    11    12   ar
    33    12     1   ar
    34    11     5   ar
    35    18    13    1
    36    32    27   ar
    37    26    21    1
    38    19    20    1
@<TRIPOS>MOLECULE
*****
 34 38 0 0 0
SMALL
GASTEIGER

@<TRIPOS>ATOM
      1 C         142.3308  141.2528  168.6373 C.ar    1  UNL1       -0.0199
      2 C         141.0839  140.4190  168.6369 C.ar    1  UNL1        0.0269
      3 C         140.3467  140.1729  167.3539 C.ar    1  UNL1        0.1573
      4 F         139.0998  139.3390  167.3536 F       1  UNL1       -0.2026
      5 C         140.8564  140.7605  166.0714 C.ar    1  UNL1        0.1097
      6 N         140.1191  140.5143  164.7885 N.ar    1  UNL1       -0.2283
      7 C         140.6288  141.1020  163.5060 C.ar    1  UNL1        0.1359
      8 C         141.8757  141.9358  163.5063 C.ar    1  UNL1        0.0837
      9 C         142.6130  142.1820  164.7893 C.ar    1  UNL1       -0.0130
     10 C         143.8598  143.0157  164.7897 C.3     1  UNL1        0.0313
     11 C         142.1032  141.5943  166.0718 C.ar    1  UNL1        0.0159
     12 C         142.8405  141.8404  167.3547 C.ar    1  UNL1       -0.0029
     13 N         139.8915  140.8558  162.2230 N.pl3   1  UNL1       -0.2930
     14 C         138.9011  141.8647  161.7217 C.3     1  UNL1        0.0935
     15 C         138.1639  141.6186  160.4388 C.3     1  UNL1        0.0372
     16 C         138.4171  140.3635  159.6572 C.3     1  UNL1        0.0574
     17 C         139.4074  139.3547  160.1586 C.3     1  UNL1        0.0372
     18 C         140.1447  139.6008  161.4415 C.3     1  UNL1        0.0935
     19 N         137.6798  140.1174  158.3743 N.3     1  UNL1       -0.2994
     20 H         136.6887  140.0652  158.6096 H       1  UNL1        0.1232
     21 C         137.8048  141.0898  157.2390 C.3     1  UNL1        0.0590
     22 C         139.1542  141.6118  156.8437 C.3     1  UNL1        0.0478
     23 C         139.2792  142.5843  155.7084 C.3     1  UNL1        0.1435
     24 O         138.0545  143.0347  154.9685 O.3     1  UNL1       -0.3537
     25 C         136.7050  142.5126  155.3639 C.3     1  UNL1        0.1435
     26 C         136.5801  141.5402  156.4991 C.3     1  UNL1        0.0478
     27 C         142.3854  142.5234  162.2238 C.ar    1  UNL1        0.2621
     28 N         143.3672  141.8818  161.2888 N.ar    1  UNL1       -0.1910
     29 C         143.5913  142.8176  160.1382 C.ar    1  UNL1        0.1812
     30 C         144.4993  142.5759  158.9690 C.3     1  UNL1        0.0773
     31 N         142.7480  144.0378  160.3622 N.ar    1  UNL1       -0.0602
     32 O         142.0027  143.8559  161.6511 O.2     1  UNL1       -0.3327
     33 C         144.1277  142.5586  169.9848 C.3     1  UNL1        0.0050
     34 C         143.0681  141.4990  169.9202 C.3     1  UNL1        0.0264
@<TRIPOS>BOND
     1    33    34    1
     2    34     1    1
     3     1     2   ar
     4     2     3   ar
     5     3     4    1
     6     3     5   ar
     7     5     6   ar
     8     6     7   ar
     9     7    13    1
    10    13    14    1
    11    14    15    1
    12    15    16    1
    13    16    19    1
    14    19    21    1
    15    21    22    1
    16    22    23    1
    17    23    24    1
    18    24    25    1
    19    25    26    1
    20    16    17    1
    21    17    18    1
    22     7     8   ar
    23     8    27    1
    24    27    28   ar
    25    28    29   ar
    26    29    30    1
    27    29    31   ar
    28    31    32   ar
    29     8     9   ar
    30     9    10    1
    31     9    11   ar
    32    11    12   ar
    33    12     1   ar
    34    11     5   ar
    35    18    13    1
    36    32    27   ar
    37    26    21    1
    38    19    20    1
@<TRIPOS>MOLECULE
*****
 34 38 0 0 0
SMALL
GASTEIGER

@<TRIPOS>ATOM
      1 C         142.5114  140.9622  168.2729 C.ar    1  UNL1       -0.0199
      2 C         142.9750  139.5736  167.9460 C.ar    1  UNL1        0.0269
      3 C         142.8361  139.0461  166.5487 C.ar    1  UNL1        0.1573
      4 F         143.2998  137.6574  166.2218 F       1  UNL1       -0.2026
      5 C         142.2337  139.9071  165.4784 C.ar    1  UNL1        0.1097
      6 N         142.0948  139.3795  164.0811 N.ar    1  UNL1       -0.2283
      7 C         141.4924  140.2405  163.0107 C.ar    1  UNL1        0.1359
      8 C         141.0287  141.6291  163.3376 C.ar    1  UNL1        0.0837
      9 C         141.1676  142.1567  164.7349 C.ar    1  UNL1       -0.0130
     10 C         140.7040  143.5453  165.0618 C.3     1  UNL1        0.0313
     11 C         141.7701  141.2956  165.8053 C.ar    1  UNL1        0.0159
     12 C         141.9089  141.8232  167.2026 C.ar    1  UNL1       -0.0029
     13 N         141.3535  139.7129  161.6134 N.pl3   1  UNL1       -0.2930
     14 C         142.4882  139.8536  160.6424 C.3     1  UNL1        0.0935
     15 C         142.3494  139.3260  159.2452 C.3     1  UNL1        0.0372
     16 C         141.0758  138.6578  158.8189 C.3     1  UNL1        0.0574
     17 C         139.9412  138.5171  159.7899 C.3     1  UNL1        0.0372
     18 C         140.0801  139.0447  161.1872 C.3     1  UNL1        0.0935
     19 N         140.9370  138.1302  157.4216 N.3     1  UNL1       -0.2994
     20 H         140.6356  138.9122  156.8402 H       1  UNL1        0.1232
     21 C         142.1163  137.5086  156.7340 C.3     1  UNL1        0.0590
     22 C         142.3546  136.0316  156.8416 C.3     1  UNL1        0.0478
     23 C         143.5340  135.4100  156.1540 C.3     1  UNL1        0.1435
     24 O         144.4751  136.2655  155.3587 O.3     1  UNL1       -0.3537
     25 C         144.2368  137.7426  155.2511 C.3     1  UNL1        0.1435
     26 C         143.0574  138.3641  155.9387 C.3     1  UNL1        0.0478
     27 C         140.4263  142.4901  162.2673 C.ar    1  UNL1        0.2621
     28 N         141.1640  143.4727  161.4068 N.ar    1  UNL1       -0.1910
     29 C         140.1740  144.1096  160.4772 C.ar    1  UNL1        0.1812
     30 C         140.4799  145.1523  159.4432 C.3     1  UNL1        0.0773
     31 N         138.8244  143.5206  160.7631 N.ar    1  UNL1       -0.0602
     32 O         138.9804  142.5197  161.8694 O.2     1  UNL1       -0.3327
     33 C         143.7061  142.5072  169.9863 C.3     1  UNL1        0.0050
     34 C         142.6502  141.4898  169.6702 C.3     1  UNL1        0.0264
@<TRIPOS>BOND
     1    33    34    1
     2    34     1    1
     3     1     2   ar
     4     2     3   ar
     5     3     4    1
     6     3     5   ar
     7     5     6   ar
     8     6     7   ar
     9     7    13    1
    10    13    14    1
    11    14    15    1
    12    15    16    1
    13    16    19    1
    14    19    21    1
    15    21    22    1
    16    22    23    1
    17    23    24    1
    18    24    25    1
    19    25    26    1
    20    16    17    1
    21    17    18    1
    22     7     8   ar
    23     8    27    1
    24    27    28   ar
    25    28    29   ar
    26    29    30    1
    27    29    31   ar
    28    31    32   ar
    29     8     9   ar
    30     9    10    1
    31     9    11   ar
    32    11    12   ar
    33    12     1   ar
    34    11     5   ar
    35    18    13    1
    36    32    27   ar
    37    26    21    1
    38    19    20    1
@<TRIPOS>MOLECULE
*****
 34 38 0 0 0
SMALL
GASTEIGER

@<TRIPOS>ATOM
      1 C         143.7222  129.9313  157.2094 C.ar    1  UNL1       -0.0199
      2 C         144.8346  130.5895  157.9704 C.ar    1  UNL1        0.0269
      3 C         144.9664  132.0837  157.9638 C.ar    1  UNL1        0.1573
      4 F         146.0789  132.7419  158.7249 F       1  UNL1       -0.2026
      5 C         143.9857  132.9197  157.1961 C.ar    1  UNL1        0.1097
      6 N         144.1175  134.4139  157.1894 N.ar    1  UNL1       -0.2283
      7 C         143.1369  135.2499  156.4217 C.ar    1  UNL1        0.1359
      8 C         142.0244  134.5917  155.6606 C.ar    1  UNL1        0.0837
      9 C         141.8926  133.0975  155.6672 C.ar    1  UNL1       -0.0130
     10 C         140.7802  132.4393  154.9062 C.3     1  UNL1        0.0313
     11 C         142.8733  132.2615  156.4350 C.ar    1  UNL1        0.0159
     12 C         142.7415  130.7673  156.4417 C.ar    1  UNL1       -0.0029
     13 N         143.2687  136.7440  156.4150 N.pl3   1  UNL1       -0.2930
     14 C         144.0517  137.4231  155.3306 C.3     1  UNL1        0.0935
     15 C         144.1835  138.9173  155.3239 C.3     1  UNL1        0.0372
     16 C         143.5323  139.7324  156.4017 C.3     1  UNL1        0.0574
     17 C         142.7493  139.0534  157.4861 C.3     1  UNL1        0.0372
     18 C         142.6175  137.5592  157.4927 C.3     1  UNL1        0.0935
     19 N         143.6641  141.2266  156.3951 N.3     1  UNL1       -0.2994
     20 H         143.5068  141.5403  157.3528 H       1  UNL1        0.1232
     21 C         144.9411  141.8648  155.9345 C.3     1  UNL1        0.0590
     22 C         145.0138  142.5046  154.5798 C.3     1  UNL1        0.0478
     23 C         146.2908  143.1428  154.1193 C.3     1  UNL1        0.1435
     24 O         147.4950  143.1412  155.0136 O.3     1  UNL1       -0.3537
     25 C         147.4223  142.5015  156.3684 C.3     1  UNL1        0.1435
     26 C         146.1453  141.8633  156.8288 C.3     1  UNL1        0.0478
     27 C         141.0438  135.4277  154.8929 C.ar    1  UNL1        0.2621
     28 N         139.9371  136.2518  155.4812 N.ar    1  UNL1       -0.1910
     29 C         139.2070  136.9198  154.3540 C.ar    1  UNL1        0.1812
     30 C         138.0284  137.8379  154.4882 C.3     1  UNL1        0.0773
     31 N         139.8624  136.5085  153.0689 N.ar    1  UNL1       -0.0602
     32 O         140.9976  135.5863  153.4020 O.2     1  UNL1       -0.3327
     33 C         142.3424  127.7919  156.6904 C.3     1  UNL1        0.0050
     34 C         143.5904  128.4371  157.2160 C.3     1  UNL1        0.0264
@<TRIPOS>BOND
     1    33    34    1
     2    34     1    1
     3     1     2   ar
     4     2     3   ar
     5     3     4    1
     6     3     5   ar
     7     5     6   ar
     8     6     7   ar
     9     7    13    1
    10    13    14    1
    11    14    15    1
    12    15    16    1
    13    16    19    1
    14    19    21    1
    15    21    22    1
    16    22    23    1
    17    23    24    1
    18    24    25    1
    19    25    26    1
    20    16    17    1
    21    17    18    1
    22     7     8   ar
    23     8    27    1
    24    27    28   ar
    25    28    29   ar
    26    29    30    1
    27    29    31   ar
    28    31    32   ar
    29     8     9   ar
    30     9    10    1
    31     9    11   ar
    32    11    12   ar
    33    12     1   ar
    34    11     5   ar
    35    18    13    1
    36    32    27   ar
    37    26    21    1
    38    19    20    1
@<TRIPOS>MOLECULE
*****
 34 38 0 0 0
SMALL
GASTEIGER

@<TRIPOS>ATOM
      1 C         138.5850  139.3844  166.3273 C.ar    1  UNL1       -0.0199
      2 C         139.6155  140.4117  166.6916 C.ar    1  UNL1        0.0269
      3 C         140.4690  141.0294  165.6239 C.ar    1  UNL1        0.1573
      4 F         141.4995  142.0567  165.9882 F       1  UNL1       -0.2026
      5 C         140.2920  140.6197  164.1918 C.ar    1  UNL1        0.1097
      6 N         141.1455  141.2374  163.1241 N.ar    1  UNL1       -0.2283
      7 C         140.9685  140.8277  161.6920 C.ar    1  UNL1        0.1359
      8 C         139.9380  139.8004  161.3277 C.ar    1  UNL1        0.0837
      9 C         139.0845  139.1827  162.3954 C.ar    1  UNL1       -0.0130
     10 C         138.0541  138.1554  162.0311 C.3     1  UNL1        0.0313
     11 C         139.2615  139.5924  163.8275 C.ar    1  UNL1        0.0159
     12 C         138.4081  138.9748  164.8953 C.ar    1  UNL1       -0.0029
     13 N         141.8220  141.4454  160.6243 N.pl3   1  UNL1       -0.2930
     14 C         143.1509  140.8394  160.2824 C.3     1  UNL1        0.0935
     15 C         144.0044  141.4571  159.2147 C.3     1  UNL1        0.0372
     16 C         143.5289  142.6807  158.4888 C.3     1  UNL1        0.0574
     17 C         142.2000  143.2865  158.8307 C.3     1  UNL1        0.0372
     18 C         141.3466  142.6689  159.8984 C.3     1  UNL1        0.0935
     19 N         144.3824  143.2983  157.4210 N.3     1  UNL1       -0.2994
     20 H         145.1553  143.7654  157.8953 H       1  UNL1        0.1232
     21 C         144.9874  142.4366  156.3525 C.3     1  UNL1        0.0590
     22 C         144.1034  141.7396  155.3613 C.3     1  UNL1        0.0478
     23 C         144.7083  140.8779  154.2928 C.3     1  UNL1        0.1435
     24 O         146.1972  140.7134  154.2156 O.3     1  UNL1       -0.3537
     25 C         147.0812  141.4105  155.2069 C.3     1  UNL1        0.1435
     26 C         146.4763  142.2721  156.2753 C.3     1  UNL1        0.0478
     27 C         139.7610  139.3907  159.8956 C.ar    1  UNL1        0.2621
     28 N         140.6390  138.4416  159.1351 N.ar    1  UNL1       -0.1910
     29 C         140.0956  138.3225  157.7421 C.ar    1  UNL1        0.1812
     30 C         140.6659  137.4764  156.6425 C.3     1  UNL1        0.0773
     31 N         138.8818  139.1981  157.6416 N.ar    1  UNL1       -0.0602
     32 O         138.6750  139.8583  158.9726 O.2     1  UNL1       -0.3327
     33 C         137.1771  137.3859  167.2067 C.3     1  UNL1        0.0050
     34 C         137.7315  138.7668  167.3951 C.3     1  UNL1        0.0264
@<TRIPOS>BOND
     1    33    34    1
     2    34     1    1
     3     1     2   ar
     4     2     3   ar
     5     3     4    1
     6     3     5   ar
     7     5     6   ar
     8     6     7   ar
     9     7    13    1
    10    13    14    1
    11    14    15    1
    12    15    16    1
    13    16    19    1
    14    19    21    1
    15    21    22    1
    16    22    23    1
    17    23    24    1
    18    24    25    1
    19    25    26    1
    20    16    17    1
    21    17    18    1
    22     7     8   ar
    23     8    27    1
    24    27    28   ar
    25    28    29   ar
    26    29    30    1
    27    29    31   ar
    28    31    32   ar
    29     8     9   ar
    30     9    10    1
    31     9    11   ar
    32    11    12   ar
    33    12     1   ar
    34    11     5   ar
    35    18    13    1
    36    32    27   ar
    37    26    21    1
    38    19    20    1
@<TRIPOS>MOLECULE
*****
 34 38 0 0 0
SMALL
GASTEIGER

@<TRIPOS>ATOM
      1 C         142.3284  141.6364  167.4223 C.ar    1  UNL1       -0.0199
      2 C         142.5221  140.1591  167.2495 C.ar    1  UNL1        0.0269
      3 C         142.5287  139.5592  165.8747 C.ar    1  UNL1        0.1573
      4 F         142.7224  138.0818  165.7020 F       1  UNL1       -0.2026
      5 C         142.3416  140.4367  164.6726 C.ar    1  UNL1        0.1097
      6 N         142.3483  139.8369  163.2978 N.ar    1  UNL1       -0.2283
      7 C         142.1612  140.7144  162.0958 C.ar    1  UNL1        0.1359
      8 C         141.9675  142.1918  162.2685 C.ar    1  UNL1        0.0837
      9 C         141.9609  142.7916  163.6433 C.ar    1  UNL1       -0.0130
     10 C         141.7671  144.2690  163.8161 C.3     1  UNL1        0.0313
     11 C         142.1479  141.9141  164.8454 C.ar    1  UNL1        0.0159
     12 C         142.1413  142.5139  166.2202 C.ar    1  UNL1       -0.0029
     13 N         142.1679  140.1145  160.7210 N.pl3   1  UNL1       -0.2930
     14 C         140.9376  139.4390  160.1915 C.3     1  UNL1        0.0935
     15 C         140.9443  138.8391  158.8167 C.3     1  UNL1        0.0372
     16 C         142.1811  138.9148  157.9713 C.3     1  UNL1        0.0574
     17 C         143.4113  139.5903  158.5008 C.3     1  UNL1        0.0372
     18 C         143.4046  140.1902  159.8756 C.3     1  UNL1        0.0935
     19 N         142.1878  138.3150  156.5965 N.3     1  UNL1       -0.2994
     20 H         143.0231  138.6644  156.1268 H       1  UNL1        0.1232
     21 C         142.1881  136.8243  156.4286 C.3     1  UNL1        0.0590
     22 C         143.1284  135.9789  157.2354 C.3     1  UNL1        0.0478
     23 C         143.1287  134.4883  157.0675 C.3     1  UNL1        0.1435
     24 O         142.1887  133.8432  156.0927 O.3     1  UNL1       -0.3537
     25 C         141.2483  134.6887  155.2859 C.3     1  UNL1        0.1435
     26 C         141.2480  136.1792  155.4538 C.3     1  UNL1        0.0478
     27 C         141.7804  143.0693  161.0665 C.ar    1  UNL1        0.2621
     28 N         140.5754  143.0965  160.1736 N.ar    1  UNL1       -0.1910
     29 C         140.8157  144.1177  159.1015 C.ar    1  UNL1        0.1812
     30 C         139.8688  144.4726  157.9937 C.3     1  UNL1        0.0773
     31 N         142.1694  144.7216  159.3318 N.ar    1  UNL1       -0.0602
     32 O         142.7656  144.0736  160.5462 O.2     1  UNL1       -0.3327
     33 C         143.4770  141.9999  169.7241 C.3     1  UNL1        0.0050
     34 C         142.3217  142.2363  168.7971 C.3     1  UNL1        0.0264
@<TRIPOS>BOND
     1    33    34    1
     2    34     1    1
     3     1     2   ar
     4     2     3   ar
     5     3     4    1
     6     3     5   ar
     7     5     6   ar
     8     6     7   ar
     9     7    13    1
    10    13    14    1
    11    14    15    1
    12    15    16    1
    13    16    19    1
    14    19    21    1
    15    21    22    1
    16    22    23    1
    17    23    24    1
    18    24    25    1
    19    25    26    1
    20    16    17    1
    21    17    18    1
    22     7     8   ar
    23     8    27    1
    24    27    28   ar
    25    28    29   ar
    26    29    30    1
    27    29    31   ar
    28    31    32   ar
    29     8     9   ar
    30     9    10    1
    31     9    11   ar
    32    11    12   ar
    33    12     1   ar
    34    11     5   ar
    35    18    13    1
    36    32    27   ar
    37    26    21    1
    38    19    20    1
@<TRIPOS>MOLECULE
*****
 34 38 0 0 0
SMALL
GASTEIGER

@<TRIPOS>ATOM
      1 C         140.0616  141.0847  168.4234 C.ar    1  UNL1       -0.0199
      2 C         139.2176  139.8828  168.1183 C.ar    1  UNL1        0.0269
      3 C         138.9450  139.4998  166.6939 C.ar    1  UNL1        0.1573
      4 F         138.1010  138.2978  166.3889 F       1  UNL1       -0.2026
      5 C         139.5163  140.3187  165.5746 C.ar    1  UNL1        0.1097
      6 N         139.2436  139.9357  164.1502 N.ar    1  UNL1       -0.2283
      7 C         139.8149  140.7546  163.0308 C.ar    1  UNL1        0.1359
      8 C         140.6589  141.9566  163.3358 C.ar    1  UNL1        0.0837
      9 C         140.9315  142.3396  164.7603 C.ar    1  UNL1       -0.0130
     10 C         141.7755  143.5415  165.0653 C.3     1  UNL1        0.0313
     11 C         140.3602  141.5206  165.8796 C.ar    1  UNL1        0.0159
     12 C         140.6328  141.9036  167.3041 C.ar    1  UNL1       -0.0029
     13 N         139.5422  140.3715  161.6064 N.pl3   1  UNL1       -0.2930
     14 C         140.4485  139.4051  160.9030 C.3     1  UNL1        0.0935
     15 C         140.1759  139.0221  159.4786 C.3     1  UNL1        0.0372
     16 C         138.9969  139.6055  158.7576 C.3     1  UNL1        0.0574
     17 C         138.0907  140.5719  159.4610 C.3     1  UNL1        0.0372
     18 C         138.3634  140.9549  160.8854 C.3     1  UNL1        0.0935
     19 N         138.7243  139.2225  157.3332 N.3     1  UNL1       -0.2994
     20 H         138.3928  140.0633  156.8604 H       1  UNL1        0.1232
     21 C         139.8238  138.6542  156.4857 C.3     1  UNL1        0.0590
     22 C         140.8958  139.5538  155.9458 C.3     1  UNL1        0.0478
     23 C         141.9954  138.9856  155.0983 C.3     1  UNL1        0.1435
     24 O         142.0229  137.5177  154.7908 O.3     1  UNL1       -0.3537
     25 C         140.9509  136.6181  155.3307 C.3     1  UNL1        0.1435
     26 C         139.8514  137.1863  156.1782 C.3     1  UNL1        0.0478
     27 C         141.2302  142.7755  162.2165 C.ar    1  UNL1        0.2621
     28 N         140.4875  143.7894  161.3978 N.ar    1  UNL1       -0.1910
     29 C         141.4427  144.3648  160.3946 C.ar    1  UNL1        0.1812
     30 C         141.1214  145.4143  159.3722 C.3     1  UNL1        0.0773
     31 N         142.7758  143.7064  160.5933 N.ar    1  UNL1       -0.0602
     32 O         142.6444  142.7242  161.7193 O.2     1  UNL1       -0.3327
     33 C         139.8089  142.7641  170.3896 C.3     1  UNL1        0.0050
     34 C         140.3342  141.4678  169.8478 C.3     1  UNL1        0.0264
@<TRIPOS>BOND
     1    33    34    1
     2    34     1    1
     3     1     2   ar
     4     2     3   ar
     5     3     4    1
     6     3     5   ar
     7     5     6   ar
     8     6     7   ar
     9     7    13    1
    10    13    14    1
    11    14    15    1
    12    15    16    1
    13    16    19    1
    14    19    21    1
    15    21    22    1
    16    22    23    1
    17    23    24    1
    18    24    25    1
    19    25    26    1
    20    16    17    1
    21    17    18    1
    22     7     8   ar
    23     8    27    1
    24    27    28   ar
    25    28    29   ar
    26    29    30    1
    27    29    31   ar
    28    31    32   ar
    29     8     9   ar
    30     9    10    1
    31     9    11   ar
    32    11    12   ar
    33    12     1   ar
    34    11     5   ar
    35    18    13    1
    36    32    27   ar
    37    26    21    1
    38    19    20    1
