@<TRIPOS>MOLECULE
*****
 36 38 0 0 0
SMALL
GASTEIGER

@<TRIPOS>ATOM
      1 C         140.2647  138.4454  159.8816 C.ar    1  UNL1       -0.0204
      2 C         139.4324  138.0827  161.0757 C.ar    1  UNL1       -0.0028
      3 C         140.0597  138.0228  162.4369 C.ar    1  UNL1        0.0199
      4 C         141.5193  138.3257  162.6040 C.ar    1  UNL1        0.1253
      5 C         142.3515  138.6885  161.4099 C.ar    1  UNL1        0.0199
      6 C         141.7242  138.7483  160.0487 C.ar    1  UNL1       -0.0028
      7 S         142.1467  138.2659  163.9652 S.O2    1  UNL1        0.0768
      8 O         143.1665  139.2802  163.5397 O.2     1  UNL1       -0.1498
      9 O         141.1268  137.2516  164.3907 O.2     1  UNL1       -0.1498
     10 N         142.7740  138.2061  165.3263 N.am    1  UNL1       -0.1693
     11 C         142.3380  139.1632  166.3958 C.2     1  UNL1        0.3194
     12 O         141.2746  140.1801  166.1041 O.2     1  UNL1       -0.2512
     13 N         142.9654  139.1035  167.7570 N.am    1  UNL1       -0.2894
     14 H         143.4720  137.5387  165.5178 H       1  UNL1        0.1781
     15 H         143.6633  138.4361  167.9485 H       1  UNL1        0.1509
     16 C         142.5293  140.0606  168.8265 C.3     1  UNL1        0.0731
     17 C         141.5374  139.6248  169.8640 C.3     1  UNL1        0.0196
     18 C         141.1013  140.5819  170.9334 C.3     1  UNL1        0.0017
     19 C         141.6572  141.9748  170.9655 C.3     1  UNL1        0.0001
     20 C         142.6491  142.4105  169.9281 C.3     1  UNL1        0.0017
     21 C         143.0852  141.4534  168.8586 C.3     1  UNL1        0.0196
     22 C         139.6373  138.5052  158.5204 C.3     1  UNL1        0.0476
     23 C         140.4755  138.2772  157.2975 C.3     1  UNL1        0.0944
     24 C         142.3453  136.5322  156.8404 C.2     1  UNL1        0.2488
     25 O         143.3867  137.5705  157.1363 O.2     1  UNL1       -0.2700
     26 N         140.8898  136.8856  156.9210 N.am    1  UNL1       -0.3004
     27 H         140.2063  136.2041  156.7268 H       1  UNL1        0.1498
     28 C         142.2393  134.5188  155.2018 C.ar    1  UNL1        0.1431
     29 C         142.6535  133.1271  154.8254 C.ar    1  UNL1        0.0379
     30 C         143.5879  132.3573  155.7109 C.ar    1  UNL1        0.0145
     31 C         144.1081  132.9790  156.9730 C.ar    1  UNL1        0.0580
     32 CL        145.0425  132.2091  157.8585 Cl      1  UNL1       -0.0822
     33 C         143.6939  134.3706  157.3494 C.ar    1  UNL1        0.0190
     34 C         142.7595  135.1405  156.4639 C.ar    1  UNL1        0.0881
     35 C         141.7900  135.8289  153.0038 C.3     1  UNL1        0.2525
     36 O         141.3049  135.2886  154.3163 O.3     1  UNL1       -0.4713
@<TRIPOS>BOND
     1    35    36    1
     2    36    28    1
     3    28    29   ar
     4    29    30   ar
     5    30    31   ar
     6    31    32    1
     7    31    33   ar
     8    33    34   ar
     9    34    24    1
    10    24    25    2
    11    24    26   am
    12    26    23    1
    13    23    22    1
    14    22     1    1
    15     1     2   ar
    16     2     3   ar
    17     3     4   ar
    18     4     7    1
    19     7     8    2
    20     7     9    2
    21     7    10    1
    22    10    11   am
    23    11    12    2
    24    11    13   am
    25    13    16    1
    26    16    17    1
    27    17    18    1
    28    18    19    1
    29    19    20    1
    30    20    21    1
    31     4     5   ar
    32     5     6   ar
    33    34    28   ar
    34     6     1   ar
    35    21    16    1
    36    26    27    1
    37    10    14    1
    38    13    15    1
@<TRIPOS>MOLECULE
*****
 36 38 0 0 0
SMALL
GASTEIGER

@<TRIPOS>ATOM
      1 C         139.3965  138.9294  160.0488 C.ar    1  UNL1       -0.0204
      2 C         140.4411  138.4010  160.9866 C.ar    1  UNL1       -0.0028
      3 C         140.1859  138.3906  162.4647 C.ar    1  UNL1        0.0199
      4 C         138.8861  138.9086  163.0050 C.ar    1  UNL1        0.1253
      5 C         137.8414  139.4371  162.0672 C.ar    1  UNL1        0.0199
      6 C         138.0966  139.4475  160.5891 C.ar    1  UNL1       -0.0028
      7 S         138.6308  138.8982  164.4831 S.O2    1  UNL1        0.0768
      8 O         139.3135  137.5670  164.5916 O.2     1  UNL1       -0.1498
      9 O         137.9482  140.2294  164.3746 O.2     1  UNL1       -0.1498
     10 N         138.3756  138.8878  165.9612 N.am    1  UNL1       -0.1693
     11 C         139.3104  139.6059  166.8887 C.2     1  UNL1        0.3194
     12 O         140.5004  140.3345  166.3382 O.2     1  UNL1       -0.2512
     13 N         139.0552  139.5955  168.3669 N.am    1  UNL1       -0.2894
     14 H         137.5946  138.4096  166.3225 H       1  UNL1        0.1781
     15 H         138.2742  139.1173  168.7282 H       1  UNL1        0.1509
     16 C         139.9900  140.3136  169.2944 C.3     1  UNL1        0.0731
     17 C         141.2863  139.6744  169.6958 C.3     1  UNL1        0.0196
     18 C         142.2211  140.3925  170.6234 C.3     1  UNL1        0.0017
     19 C         141.8596  141.7499  171.1496 C.3     1  UNL1        0.0001
     20 C         140.5634  142.3892  170.7482 C.3     1  UNL1        0.0017
     21 C         139.6285  141.6710  169.8206 C.3     1  UNL1        0.0196
     22 C         139.6517  138.9398  158.5707 C.3     1  UNL1        0.0476
     23 C         140.9780  138.4876  158.0355 C.3     1  UNL1        0.0944
     24 C         142.4171  136.7146  156.7963 C.2     1  UNL1        0.2488
     25 O         143.6070  137.6244  156.8766 O.2     1  UNL1       -0.2700
     26 N         141.1026  137.1462  157.3758 N.am    1  UNL1       -0.3004
     27 H         140.3216  136.5491  157.3231 H       1  UNL1        0.1498
     28 C         141.5451  134.9531  155.0973 C.ar    1  UNL1        0.1431
     29 C         141.6697  133.6118  154.4376 C.ar    1  UNL1        0.0379
     30 C         142.7909  132.6905  154.8173 C.ar    1  UNL1        0.0145
     31 C         143.7875  133.1106  155.8566 C.ar    1  UNL1        0.0580
     32 CL        144.9088  132.1894  156.2362 Cl      1  UNL1       -0.0822
     33 C         143.6629  134.4520  156.5162 C.ar    1  UNL1        0.0190
     34 C         142.5417  135.3732  156.1366 C.ar    1  UNL1        0.0881
     35 C         140.5394  136.7310  153.4918 C.3     1  UNL1        0.2525
     36 O         140.4238  135.8744  154.7177 O.3     1  UNL1       -0.4713
@<TRIPOS>BOND
     1    35    36    1
     2    36    28    1
     3    28    29   ar
     4    29    30   ar
     5    30    31   ar
     6    31    32    1
     7    31    33   ar
     8    33    34   ar
     9    34    24    1
    10    24    25    2
    11    24    26   am
    12    26    23    1
    13    23    22    1
    14    22     1    1
    15     1     2   ar
    16     2     3   ar
    17     3     4   ar
    18     4     7    1
    19     7     8    2
    20     7     9    2
    21     7    10    1
    22    10    11   am
    23    11    12    2
    24    11    13   am
    25    13    16    1
    26    16    17    1
    27    17    18    1
    28    18    19    1
    29    19    20    1
    30    20    21    1
    31     4     5   ar
    32     5     6   ar
    33    34    28   ar
    34     6     1   ar
    35    21    16    1
    36    26    27    1
    37    10    14    1
    38    13    15    1
@<TRIPOS>MOLECULE
*****
 36 38 0 0 0
SMALL
GASTEIGER

@<TRIPOS>ATOM
      1 C         143.1820  144.2467  163.5523 C.ar    1  UNL1       -0.0204
      2 C         143.5743  143.5522  162.2819 C.ar    1  UNL1       -0.0028
      3 C         142.7175  143.6868  161.0581 C.ar    1  UNL1        0.0199
      4 C         141.4684  144.5159  161.1047 C.ar    1  UNL1        0.1253
      5 C         141.0761  145.2104  162.3750 C.ar    1  UNL1        0.0199
      6 C         141.9329  145.0758  163.5988 C.ar    1  UNL1       -0.0028
      7 S         140.6115  144.6506  159.8808 S.O2    1  UNL1        0.0768
      8 O         141.3476  143.5115  159.2402 O.2     1  UNL1       -0.1498
      9 O         139.8754  145.7897  160.5215 O.2     1  UNL1       -0.1498
     10 N         139.7547  144.7852  158.6570 N.am    1  UNL1       -0.1693
     11 C         140.2459  145.5759  157.4809 C.2     1  UNL1        0.3194
     12 O         141.5940  146.2320  157.5285 O.2     1  UNL1       -0.2512
     13 N         139.3891  145.7105  156.2570 N.am    1  UNL1       -0.2894
     14 H         138.8699  144.3545  158.6258 H       1  UNL1        0.1781
     15 H         138.5043  145.2799  156.2257 H       1  UNL1        0.1509
     16 C         139.8804  146.5012  155.0808 C.3     1  UNL1        0.0731
     17 C         140.7830  145.8588  154.0695 C.3     1  UNL1        0.0196
     18 C         141.2742  146.6495  152.8933 C.3     1  UNL1        0.0017
     19 C         140.8629  148.0826  152.7284 C.3     1  UNL1        0.0001
     20 C         139.9603  148.7249  153.7397 C.3     1  UNL1        0.0017
     21 C         139.4690  147.9342  154.9159 C.3     1  UNL1        0.0196
     22 C         144.0389  144.1121  164.7761 C.3     1  UNL1        0.0476
     23 C         143.9102  142.9014  165.6523 C.3     1  UNL1        0.0944
     24 C         141.6432  141.6500  165.4411 C.2     1  UNL1        0.2488
     25 O         140.9580  142.7684  166.1689 O.2     1  UNL1       -0.2700
     26 N         143.1193  141.7165  165.1828 N.am    1  UNL1       -0.3004
     27 H         143.5690  140.9824  164.7051 H       1  UNL1        0.1498
     28 C         141.1596  139.0982  165.5074 C.ar    1  UNL1        0.1431
     29 C         140.3687  137.9133  165.0379 C.ar    1  UNL1        0.0379
     30 C         139.2704  138.0953  164.0326 C.ar    1  UNL1        0.0145
     31 C         138.9630  139.4621  163.4968 C.ar    1  UNL1        0.0580
     32 CL        137.8647  139.6441  162.4915 Cl      1  UNL1       -0.0822
     33 C         139.7539  140.6470  163.9663 C.ar    1  UNL1        0.0190
     34 C         140.8522  140.4650  164.9716 C.ar    1  UNL1        0.0881
     35 C         143.5404  138.2505  166.1101 C.3     1  UNL1        0.2525
     36 O         142.2579  138.9162  166.5127 O.3     1  UNL1       -0.4713
@<TRIPOS>BOND
     1    35    36    1
     2    36    28    1
     3    28    29   ar
     4    29    30   ar
     5    30    31   ar
     6    31    32    1
     7    31    33   ar
     8    33    34   ar
     9    34    24    1
    10    24    25    2
    11    24    26   am
    12    26    23    1
    13    23    22    1
    14    22     1    1
    15     1     2   ar
    16     2     3   ar
    17     3     4   ar
    18     4     7    1
    19     7     8    2
    20     7     9    2
    21     7    10    1
    22    10    11   am
    23    11    12    2
    24    11    13   am
    25    13    16    1
    26    16    17    1
    27    17    18    1
    28    18    19    1
    29    19    20    1
    30    20    21    1
    31     4     5   ar
    32     5     6   ar
    33    34    28   ar
    34     6     1   ar
    35    21    16    1
    36    26    27    1
    37    10    14    1
    38    13    15    1
@<TRIPOS>MOLECULE
*****
 36 38 0 0 0
SMALL
GASTEIGER

@<TRIPOS>ATOM
      1 C         139.0908  139.2932  160.2602 C.ar    1  UNL1       -0.0204
      2 C         138.6153  140.5058  161.0041 C.ar    1  UNL1       -0.0028
      3 C         138.4038  140.4405  162.4876 C.ar    1  UNL1        0.0199
      4 C         138.6677  139.1625  163.2272 C.ar    1  UNL1        0.1253
      5 C         139.1432  137.9499  162.4833 C.ar    1  UNL1        0.0199
      6 C         139.3547  138.0152  160.9998 C.ar    1  UNL1       -0.0028
      7 S         138.4562  139.0971  164.7109 S.O2    1  UNL1        0.0768
      8 O         137.7590  140.4246  164.6699 O.2     1  UNL1       -0.1498
      9 O         139.1534  137.7697  164.7518 O.2     1  UNL1       -0.1498
     10 N         138.2446  139.0318  166.1944 N.am    1  UNL1       -0.1693
     11 C         139.2053  139.7178  167.1198 C.2     1  UNL1        0.3194
     12 O         140.3775  140.4691  166.5618 O.2     1  UNL1       -0.2512
     13 N         138.9938  139.6525  168.6035 N.am    1  UNL1       -0.2894
     14 H         137.4753  138.5387  166.5607 H       1  UNL1        0.1781
     15 H         138.2244  139.1594  168.9698 H       1  UNL1        0.1509
     16 C         139.9544  140.3385  169.5289 C.3     1  UNL1        0.0731
     17 C         139.6104  141.6787  170.1082 C.3     1  UNL1        0.0196
     18 C         140.5711  142.3647  171.0337 C.3     1  UNL1        0.0017
     19 C         141.8758  141.7106  171.3799 C.3     1  UNL1        0.0001
     20 C         142.2198  140.3704  170.8006 C.3     1  UNL1        0.0017
     21 C         141.2591  139.6843  169.8751 C.3     1  UNL1        0.0196
     22 C         139.3023  139.3586  158.7765 C.3     1  UNL1        0.0476
     23 C         140.5090  140.0552  158.2210 C.3     1  UNL1        0.0944
     24 C         142.5210  139.9138  159.8586 C.2     1  UNL1        0.2488
     25 O         142.5906  138.4307  159.6450 O.2     1  UNL1       -0.2700
     26 N         141.4802  140.7260  159.1466 N.am    1  UNL1       -0.3004
     27 H         141.4345  141.6994  159.2868 H       1  UNL1        0.1498
     28 C         144.0855  141.9119  160.4152 C.ar    1  UNL1        0.1431
     29 C         145.0566  142.5827  161.3408 C.ar    1  UNL1        0.0379
     30 C         145.4345  141.9262  162.6355 C.ar    1  UNL1        0.0145
     31 C         144.8412  140.5989  163.0046 C.ar    1  UNL1        0.0580
     32 CL        145.2191  139.9424  164.2993 Cl      1  UNL1       -0.0822
     33 C         143.8701  139.9281  162.0790 C.ar    1  UNL1        0.0190
     34 C         143.4922  140.5846  160.7843 C.ar    1  UNL1        0.0881
     35 C         144.6636  142.5530  157.9648 C.3     1  UNL1        0.2525
     36 O         143.7076  142.5684  159.1205 O.3     1  UNL1       -0.4713
@<TRIPOS>BOND
     1    35    36    1
     2    36    28    1
     3    28    29   ar
     4    29    30   ar
     5    30    31   ar
     6    31    32    1
     7    31    33   ar
     8    33    34   ar
     9    34    24    1
    10    24    25    2
    11    24    26   am
    12    26    23    1
    13    23    22    1
    14    22     1    1
    15     1     2   ar
    16     2     3   ar
    17     3     4   ar
    18     4     7    1
    19     7     8    2
    20     7     9    2
    21     7    10    1
    22    10    11   am
    23    11    12    2
    24    11    13   am
    25    13    16    1
    26    16    17    1
    27    17    18    1
    28    18    19    1
    29    19    20    1
    30    20    21    1
    31     4     5   ar
    32     5     6   ar
    33    34    28   ar
    34     6     1   ar
    35    21    16    1
    36    26    27    1
    37    10    14    1
    38    13    15    1
@<TRIPOS>MOLECULE
*****
 36 38 0 0 0
SMALL
GASTEIGER

@<TRIPOS>ATOM
      1 C         143.9203  140.0918  159.8957 C.ar    1  UNL1       -0.0204
      2 C         143.6730  138.6675  160.2959 C.ar    1  UNL1       -0.0028
      3 C         143.6141  138.2959  161.7480 C.ar    1  UNL1        0.0199
      4 C         143.8026  139.3485  162.7997 C.ar    1  UNL1        0.1253
      5 C         144.0499  140.7729  162.3995 C.ar    1  UNL1        0.0199
      6 C         144.1088  141.1445  160.9475 C.ar    1  UNL1       -0.0028
      7 S         143.7437  138.9769  164.2518 S.O2    1  UNL1        0.0768
      8 O         145.0789  139.6240  164.4715 O.2     1  UNL1       -0.1498
      9 O         142.4084  138.3299  164.0322 O.2     1  UNL1       -0.1498
     10 N         143.6848  138.6054  165.7039 N.am    1  UNL1       -0.1693
     11 C         143.0107  139.5181  166.6848 C.2     1  UNL1        0.3194
     12 O         142.3954  140.8024  166.2138 O.2     1  UNL1       -0.2512
     13 N         142.9518  139.1466  168.1370 N.am    1  UNL1       -0.2894
     14 H         144.0887  137.7624  166.0130 H       1  UNL1        0.1781
     15 H         143.3557  138.3036  168.4461 H       1  UNL1        0.1509
     16 C         142.2776  140.0593  169.1179 C.3     1  UNL1        0.0731
     17 C         143.0553  141.1621  169.7732 C.3     1  UNL1        0.0196
     18 C         142.3812  142.0748  170.7541 C.3     1  UNL1        0.0017
     19 C         140.9293  141.8849  171.0799 C.3     1  UNL1        0.0001
     20 C         140.1517  140.7823  170.4247 C.3     1  UNL1        0.0017
     21 C         140.8258  139.8694  169.4437 C.3     1  UNL1        0.0196
     22 C         143.9792  140.4634  158.4436 C.3     1  UNL1        0.0476
     23 C         144.6777  141.7212  158.0191 C.3     1  UNL1        0.0944
     24 C         146.8399  142.4526  156.7782 C.2     1  UNL1        0.2488
     25 O         147.3028  143.1733  158.0095 O.2     1  UNL1       -0.2700
     26 N         145.5274  141.7265  156.7830 N.am    1  UNL1       -0.3004
     27 H         145.2235  141.2535  155.9748 H       1  UNL1        0.1498
     28 C         147.2065  143.1517  154.3029 C.ar    1  UNL1        0.1431
     29 C         148.0562  143.1570  153.0668 C.ar    1  UNL1        0.0379
     30 C         149.3888  142.4685  153.0697 C.ar    1  UNL1        0.0145
     31 C         149.8719  141.7748  154.3088 C.ar    1  UNL1        0.0580
     32 CL        151.2046  141.0863  154.3117 Cl      1  UNL1       -0.0822
     33 C         149.0222  141.7695  155.5449 C.ar    1  UNL1        0.0190
     34 C         147.6896  142.4579  155.5420 C.ar    1  UNL1        0.0881
     35 C         145.5221  144.7886  153.1924 C.3     1  UNL1        0.2525
     36 O         145.8738  143.8401  154.3000 O.3     1  UNL1       -0.4713
@<TRIPOS>BOND
     1    35    36    1
     2    36    28    1
     3    28    29   ar
     4    29    30   ar
     5    30    31   ar
     6    31    32    1
     7    31    33   ar
     8    33    34   ar
     9    34    24    1
    10    24    25    2
    11    24    26   am
    12    26    23    1
    13    23    22    1
    14    22     1    1
    15     1     2   ar
    16     2     3   ar
    17     3     4   ar
    18     4     7    1
    19     7     8    2
    20     7     9    2
    21     7    10    1
    22    10    11   am
    23    11    12    2
    24    11    13   am
    25    13    16    1
    26    16    17    1
    27    17    18    1
    28    18    19    1
    29    19    20    1
    30    20    21    1
    31     4     5   ar
    32     5     6   ar
    33    34    28   ar
    34     6     1   ar
    35    21    16    1
    36    26    27    1
    37    10    14    1
    38    13    15    1
@<TRIPOS>MOLECULE
*****
 36 38 0 0 0
SMALL
GASTEIGER

@<TRIPOS>ATOM
      1 C         141.9447  138.5386  159.9708 C.ar    1  UNL1       -0.0204
      2 C         143.3648  138.3490  160.4151 C.ar    1  UNL1       -0.0028
      3 C         143.6877  138.2602  161.8772 C.ar    1  UNL1        0.0199
      4 C         142.5905  138.3611  162.8950 C.ar    1  UNL1        0.1253
      5 C         141.1704  138.5508  162.4507 C.ar    1  UNL1        0.0199
      6 C         140.8475  138.6395  160.9886 C.ar    1  UNL1       -0.0028
      7 S         142.9133  138.2723  164.3572 S.O2    1  UNL1        0.0768
      8 O         144.1350  139.1148  164.1386 O.2     1  UNL1       -0.1498
      9 O         141.6917  137.4298  164.5759 O.2     1  UNL1       -0.1498
     10 N         143.2362  138.1835  165.8194 N.am    1  UNL1       -0.1693
     11 C         142.6596  139.1839  166.7768 C.2     1  UNL1        0.3194
     12 O         141.7600  140.2730  166.2721 O.2     1  UNL1       -0.2512
     13 N         142.9824  139.0952  168.2390 N.am    1  UNL1       -0.2894
     14 H         143.8266  137.4687  166.1506 H       1  UNL1        0.1781
     15 H         143.5728  138.3804  168.5703 H       1  UNL1        0.1509
     16 C         142.4058  140.0955  169.1964 C.3     1  UNL1        0.0731
     17 C         143.1022  141.4046  169.4231 C.3     1  UNL1        0.0196
     18 C         142.5255  142.4050  170.3806 C.3     1  UNL1        0.0017
     19 C         141.2525  142.0963  171.1113 C.3     1  UNL1        0.0001
     20 C         140.5560  140.7873  170.8847 C.3     1  UNL1        0.0017
     21 C         141.1327  139.7869  169.9272 C.3     1  UNL1        0.0196
     22 C         141.6219  138.6274  158.5086 C.3     1  UNL1        0.0476
     23 C         142.5872  138.0910  157.4935 C.3     1  UNL1        0.0944
     24 C         143.4722  136.1019  156.0757 C.2     1  UNL1        0.2488
     25 O         144.6961  136.8955  155.7262 O.2     1  UNL1       -0.2700
     26 N         142.4178  136.6997  156.9594 N.am    1  UNL1       -0.3004
     27 H         141.6145  136.1788  157.1887 H       1  UNL1        0.1498
     28 C         142.2631  134.4294  154.4975 C.ar    1  UNL1        0.1431
     29 C         142.0937  133.0380  153.9634 C.ar    1  UNL1        0.0379
     30 C         142.9639  131.9277  154.4734 C.ar    1  UNL1        0.0145
     31 C         144.0035  132.2088  155.5174 C.ar    1  UNL1        0.0580
     32 CL        144.8738  131.0986  156.0273 Cl      1  UNL1       -0.0822
     33 C         144.1730  133.6002  156.0515 C.ar    1  UNL1        0.0190
     34 C         143.3028  134.7105  155.5416 C.ar    1  UNL1        0.0881
     35 C         141.8116  136.3273  152.7818 C.3     1  UNL1        0.2525
     36 O         141.3929  135.5396  153.9876 O.3     1  UNL1       -0.4713
@<TRIPOS>BOND
     1    35    36    1
     2    36    28    1
     3    28    29   ar
     4    29    30   ar
     5    30    31   ar
     6    31    32    1
     7    31    33   ar
     8    33    34   ar
     9    34    24    1
    10    24    25    2
    11    24    26   am
    12    26    23    1
    13    23    22    1
    14    22     1    1
    15     1     2   ar
    16     2     3   ar
    17     3     4   ar
    18     4     7    1
    19     7     8    2
    20     7     9    2
    21     7    10    1
    22    10    11   am
    23    11    12    2
    24    11    13   am
    25    13    16    1
    26    16    17    1
    27    17    18    1
    28    18    19    1
    29    19    20    1
    30    20    21    1
    31     4     5   ar
    32     5     6   ar
    33    34    28   ar
    34     6     1   ar
    35    21    16    1
    36    26    27    1
    37    10    14    1
    38    13    15    1
@<TRIPOS>MOLECULE
*****
 36 38 0 0 0
SMALL
GASTEIGER

@<TRIPOS>ATOM
      1 C         140.9633  143.4428  160.9346 C.ar    1  UNL1       -0.0204
      2 C         140.1924  142.7209  159.8695 C.ar    1  UNL1       -0.0028
      3 C         140.8753  141.6956  159.0139 C.ar    1  UNL1        0.0199
      4 C         142.3293  141.3922  159.2233 C.ar    1  UNL1        0.1253
      5 C         143.1003  142.1141  160.2884 C.ar    1  UNL1        0.0199
      6 C         142.4173  143.1394  161.1440 C.ar    1  UNL1       -0.0028
      7 S         143.0124  140.3668  158.3676 S.O2    1  UNL1        0.0768
      8 O         142.2003  140.8109  157.1873 O.2     1  UNL1       -0.1498
      9 O         143.8244  139.9226  159.5480 O.2     1  UNL1       -0.1498
     10 N         143.6954  139.3415  157.5120 N.am    1  UNL1       -0.1693
     11 C         143.0449  138.0113  157.2720 C.2     1  UNL1        0.3194
     12 O         141.7115  137.7065  157.8876 O.2     1  UNL1       -0.2512
     13 N         143.7279  136.9859  156.4163 N.am    1  UNL1       -0.2894
     14 H         144.5705  139.5415  157.1079 H       1  UNL1        0.1781
     15 H         144.6031  137.1860  156.0122 H       1  UNL1        0.1509
     16 C         143.0775  135.6558  156.1763 C.3     1  UNL1        0.0731
     17 C         141.9609  135.5355  155.1817 C.3     1  UNL1        0.0196
     18 C         141.3105  134.2054  154.9417 C.3     1  UNL1        0.0017
     19 C         141.7765  132.9955  155.6962 C.3     1  UNL1        0.0001
     20 C         142.8929  133.1158  156.6906 C.3     1  UNL1        0.0017
     21 C         143.5435  134.4460  156.9307 C.3     1  UNL1        0.0196
     22 C         140.2803  144.4682  161.7902 C.3     1  UNL1        0.0476
     23 C         139.2706  144.0391  162.8132 C.3     1  UNL1        0.0944
     24 C         138.4933  141.5804  163.1301 C.2     1  UNL1        0.2488
     25 O         137.4353  141.7803  162.0858 O.2     1  UNL1       -0.2700
     26 N         139.4109  142.7099  163.4939 N.am    1  UNL1       -0.3004
     27 H         140.1053  142.5787  164.1793 H       1  UNL1        0.1498
     28 C         139.3354  139.1226  163.1151 C.ar    1  UNL1        0.1431
     29 C         139.4757  137.7934  163.7958 C.ar    1  UNL1        0.0379
     30 C         138.9143  137.5926  165.1722 C.ar    1  UNL1        0.0145
     31 C         138.2125  138.7211  165.8679 C.ar    1  UNL1        0.0580
     32 CL        137.6511  138.5203  167.2443 Cl      1  UNL1       -0.0822
     33 C         138.0722  140.0503  165.1872 C.ar    1  UNL1        0.0190
     34 C         138.6336  140.2511  163.8108 C.ar    1  UNL1        0.0881
     35 C         139.2265  138.6902  160.5556 C.3     1  UNL1        0.2525
     36 O         139.8968  139.3234  161.7387 O.3     1  UNL1       -0.4713
@<TRIPOS>BOND
     1    35    36    1
     2    36    28    1
     3    28    29   ar
     4    29    30   ar
     5    30    31   ar
     6    31    32    1
     7    31    33   ar
     8    33    34   ar
     9    34    24    1
    10    24    25    2
    11    24    26   am
    12    26    23    1
    13    23    22    1
    14    22     1    1
    15     1     2   ar
    16     2     3   ar
    17     3     4   ar
    18     4     7    1
    19     7     8    2
    20     7     9    2
    21     7    10    1
    22    10    11   am
    23    11    12    2
    24    11    13   am
    25    13    16    1
    26    16    17    1
    27    17    18    1
    28    18    19    1
    29    19    20    1
    30    20    21    1
    31     4     5   ar
    32     5     6   ar
    33    34    28   ar
    34     6     1   ar
    35    21    16    1
    36    26    27    1
    37    10    14    1
    38    13    15    1
@<TRIPOS>MOLECULE
*****
 36 38 0 0 0
SMALL
GASTEIGER

@<TRIPOS>ATOM
      1 C         139.2323  141.4631  165.9051 C.ar    1  UNL1       -0.0204
      2 C         139.2262  140.1387  166.6094 C.ar    1  UNL1       -0.0028
      3 C         140.1876  139.8817  167.7317 C.ar    1  UNL1        0.0199
      4 C         141.1551  140.9490  168.1497 C.ar    1  UNL1        0.1253
      5 C         141.1612  142.2733  167.4454 C.ar    1  UNL1        0.0199
      6 C         140.1998  142.5304  166.3231 C.ar    1  UNL1       -0.0028
      7 S         142.1166  140.6919  169.2720 S.O2    1  UNL1        0.0768
      8 O         141.0025  140.1155  170.0944 O.2     1  UNL1       -0.1498
      9 O         143.2308  141.2684  168.4497 O.2     1  UNL1       -0.1498
     10 N         143.0780  140.4349  170.3943 N.am    1  UNL1       -0.1693
     11 C         143.5412  139.0371  170.6798 C.2     1  UNL1        0.3194
     12 O         143.0429  137.8963  169.8429 O.2     1  UNL1       -0.2512
     13 N         144.5026  138.7800  171.8021 N.am    1  UNL1       -0.2894
     14 H         143.4050  141.1836  170.9436 H       1  UNL1        0.1781
     15 H         144.8296  139.5287  172.3514 H       1  UNL1        0.1509
     16 C         144.9658  137.3821  172.0875 C.3     1  UNL1        0.0731
     17 C         146.0667  137.1444  173.0783 C.3     1  UNL1        0.0196
     18 C         146.5298  135.7465  173.3637 C.3     1  UNL1        0.0017
     19 C         145.8921  134.5864  172.6584 C.3     1  UNL1        0.0001
     20 C         144.7913  134.8241  171.6677 C.3     1  UNL1        0.0017
     21 C         144.3281  136.2220  171.3823 C.3     1  UNL1        0.0196
     22 C         138.2708  141.7201  164.7828 C.3     1  UNL1        0.0476
     23 C         138.7868  141.9952  163.4014 C.3     1  UNL1        0.0944
     24 C         140.0578  139.8914  162.5597 C.2     1  UNL1        0.2488
     25 O         138.7948  139.0884  162.6594 O.2     1  UNL1       -0.2700
     26 N         140.0538  141.3448  162.9307 N.am    1  UNL1       -0.3004
     27 H         140.8828  141.8718  162.8653 H       1  UNL1        0.1498
     28 C         142.4905  139.1059  163.0233 C.ar    1  UNL1        0.1431
     29 C         143.7575  138.4555  162.5526 C.ar    1  UNL1        0.0379
     30 C         143.8589  137.9403  161.1475 C.ar    1  UNL1        0.0145
     31 C         142.6933  138.0754  160.2131 C.ar    1  UNL1        0.0580
     32 CL        142.7947  137.5602  158.8081 Cl      1  UNL1       -0.0822
     33 C         141.4263  138.7258  160.6839 C.ar    1  UNL1        0.0190
     34 C         141.3249  139.2410  162.0890 C.ar    1  UNL1        0.0881
     35 C         143.4172  140.5798  164.9517 C.3     1  UNL1        0.2525
     36 O         142.3891  139.6211  164.4284 O.3     1  UNL1       -0.4713
@<TRIPOS>BOND
     1    35    36    1
     2    36    28    1
     3    28    29   ar
     4    29    30   ar
     5    30    31   ar
     6    31    32    1
     7    31    33   ar
     8    33    34   ar
     9    34    24    1
    10    24    25    2
    11    24    26   am
    12    26    23    1
    13    23    22    1
    14    22     1    1
    15     1     2   ar
    16     2     3   ar
    17     3     4   ar
    18     4     7    1
    19     7     8    2
    20     7     9    2
    21     7    10    1
    22    10    11   am
    23    11    12    2
    24    11    13   am
    25    13    16    1
    26    16    17    1
    27    17    18    1
    28    18    19    1
    29    19    20    1
    30    20    21    1
    31     4     5   ar
    32     5     6   ar
    33    34    28   ar
    34     6     1   ar
    35    21    16    1
    36    26    27    1
    37    10    14    1
    38    13    15    1
@<TRIPOS>MOLECULE
*****
 36 38 0 0 0
SMALL
GASTEIGER

@<TRIPOS>ATOM
      1 C         138.0564  143.2054  163.1343 C.ar    1  UNL1       -0.0204
      2 C         138.7295  143.6445  161.8677 C.ar    1  UNL1       -0.0028
      3 C         138.8795  142.6833  160.7260 C.ar    1  UNL1        0.0199
      4 C         138.3562  141.2831  160.8507 C.ar    1  UNL1        0.1253
      5 C         137.6830  140.8441  162.1173 C.ar    1  UNL1        0.0199
      6 C         137.5331  141.8052  163.2590 C.ar    1  UNL1       -0.0028
      7 S         138.5061  140.3219  159.7089 S.O2    1  UNL1        0.0768
      8 O         138.5310  139.1762  160.6768 O.2     1  UNL1       -0.1498
      9 O         138.4813  141.4676  158.7411 O.2     1  UNL1       -0.1498
     10 N         138.6560  139.3607  158.5672 N.am    1  UNL1       -0.1693
     11 C         140.0232  138.9857  158.0771 C.2     1  UNL1        0.3194
     12 O         141.2404  139.5720  158.7287 O.2     1  UNL1       -0.2512
     13 N         140.1731  138.0245  156.9353 N.am    1  UNL1       -0.2894
     14 H         137.8571  138.9759  158.1396 H       1  UNL1        0.1781
     15 H         139.3742  137.6397  156.5077 H       1  UNL1        0.1509
     16 C         141.5403  137.6496  156.4452 C.3     1  UNL1        0.0731
     17 C         142.1019  136.2933  156.7538 C.3     1  UNL1        0.0196
     18 C         143.4690  135.9183  156.2637 C.3     1  UNL1        0.0017
     19 C         144.2747  136.8997  155.4649 C.3     1  UNL1        0.0001
     20 C         143.7131  138.2559  155.1563 C.3     1  UNL1        0.0017
     21 C         142.3459  138.6309  155.6465 C.3     1  UNL1        0.0196
     22 C         137.9065  144.1667  164.2761 C.3     1  UNL1        0.0476
     23 C         139.0687  144.4395  165.1843 C.3     1  UNL1        0.0944
     24 C         140.9369  142.7125  165.7109 C.2     1  UNL1        0.2488
     25 O         141.7052  143.1772  164.5093 O.2     1  UNL1       -0.2700
     26 N         139.6186  143.3437  166.0484 N.am    1  UNL1       -0.3004
     27 H         139.1144  143.0387  166.8370 H       1  UNL1        0.1498
     28 C         141.2673  141.6497  168.0585 C.ar    1  UNL1        0.1431
     29 C         141.8173  140.5539  168.9226 C.ar    1  UNL1        0.0379
     30 C         142.5867  139.4250  168.3032 C.ar    1  UNL1        0.0145
     31 C         142.8063  139.3920  166.8198 C.ar    1  UNL1        0.0580
     32 CL        143.5757  138.2631  166.2004 Cl      1  UNL1       -0.0822
     33 C         142.2563  140.4878  165.9557 C.ar    1  UNL1        0.0190
     34 C         141.4869  141.6167  166.5751 C.ar    1  UNL1        0.0881
     35 C         141.0620  143.5119  169.8585 C.3     1  UNL1        0.2525
     36 O         140.4979  142.7786  168.6779 O.3     1  UNL1       -0.4713
@<TRIPOS>BOND
     1    35    36    1
     2    36    28    1
     3    28    29   ar
     4    29    30   ar
     5    30    31   ar
     6    31    32    1
     7    31    33   ar
     8    33    34   ar
     9    34    24    1
    10    24    25    2
    11    24    26   am
    12    26    23    1
    13    23    22    1
    14    22     1    1
    15     1     2   ar
    16     2     3   ar
    17     3     4   ar
    18     4     7    1
    19     7     8    2
    20     7     9    2
    21     7    10    1
    22    10    11   am
    23    11    12    2
    24    11    13   am
    25    13    16    1
    26    16    17    1
    27    17    18    1
    28    18    19    1
    29    19    20    1
    30    20    21    1
    31     4     5   ar
    32     5     6   ar
    33    34    28   ar
    34     6     1   ar
    35    21    16    1
    36    26    27    1
    37    10    14    1
    38    13    15    1
