@<TRIPOS>MOLECULE
*****
 30 33 0 0 0
SMALL
GASTEIGER

@<TRIPOS>ATOM
      1 C         140.3732  142.0285  166.2315 C.3     1  UNL1        0.1031
      2 F         143.2498  143.3925  171.3173 F       1  UNL1       -0.2042
      3 C         142.5306  143.0515  170.0458 C.ar    1  UNL1        0.1401
      4 C         143.2450  142.3083  168.9562 C.ar    1  UNL1        0.0294
      5 C         142.5259  141.9673  167.6848 C.ar    1  UNL1       -0.0003
      6 C         141.0923  142.3695  167.5029 C.ar    1  UNL1       -0.0035
      7 C         140.3779  143.1127  168.5925 C.ar    1  UNL1       -0.0003
      8 C         141.0971  143.4537  169.8640 C.ar    1  UNL1        0.0294
      9 C         139.7763  140.6644  166.0501 C.ar    1  UNL1       -0.0035
     10 C         140.1028  139.8594  164.8273 C.ar    1  UNL1       -0.0003
     11 C         139.5058  138.4953  164.6459 C.ar    1  UNL1        0.0294
     12 C         138.5824  137.9362  165.6874 C.ar    1  UNL1        0.1401
     13 F         137.9855  136.5721  165.5060 F       1  UNL1       -0.2042
     14 C         138.2559  138.7412  166.9102 C.ar    1  UNL1        0.0294
     15 C         138.8528  140.1053  167.0916 C.ar    1  UNL1       -0.0003
     16 N         140.2510  143.0516  165.1414 N.3     1  UNL1       -0.2644
     17 C         141.4794  143.7194  164.5984 C.3     1  UNL1        0.0901
     18 C         141.3572  144.7425  163.5083 C.3     1  UNL1        0.0899
     19 N         140.0064  145.0978  162.9612 N.3     1  UNL1       -0.2665
     20 C         138.7780  144.4300  163.5042 C.3     1  UNL1        0.0899
     21 C         138.9002  143.4069  164.5943 C.3     1  UNL1        0.0901
     22 C         139.8842  146.1210  161.8711 C.3     1  UNL1        0.0989
     23 C         140.0466  145.7120  160.4371 C.2     1  UNL1       -0.0088
     24 C         141.3450  145.1265  159.9666 C.2     1  UNL1       -0.0032
     25 C         141.5075  144.7175  158.5326 C.ar    1  UNL1       -0.0003
     26 C         141.9540  145.7222  157.5122 C.ar    1  UNL1       -0.0000
     27 C         142.1165  145.3132  156.0782 C.ar    1  UNL1       -0.0000
     28 C         141.8324  143.8997  155.6646 C.ar    1  UNL1       -0.0000
     29 C         141.3859  142.8951  156.6850 C.ar    1  UNL1       -0.0000
     30 C         141.2234  143.3040  158.1190 C.ar    1  UNL1       -0.0000
@<TRIPOS>BOND
     1     2     3    1
     2     3     4   ar
     3     4     5   ar
     4     5     6   ar
     5     6     1    1
     6     1     9    1
     7     9    10   ar
     8    10    11   ar
     9    11    12   ar
    10    12    13    1
    11    12    14   ar
    12    14    15   ar
    13     1    16    1
    14    16    17    1
    15    17    18    1
    16    18    19    1
    17    19    22    1
    18    22    23    1
    19    23    24    2
    20    24    25    1
    21    25    26   ar
    22    26    27   ar
    23    27    28   ar
    24    28    29   ar
    25    29    30   ar
    26    19    20    1
    27    20    21    1
    28     6     7   ar
    29     7     8   ar
    30     8     3   ar
    31    15     9   ar
    32    21    16    1
    33    30    25   ar
@<TRIPOS>MOLECULE
*****
 30 33 0 0 0
SMALL
GASTEIGER

@<TRIPOS>ATOM
      1 C         140.2759  142.0056  166.2632 C.3     1  UNL1        0.1031
      2 F         137.9705  136.5054  165.6056 F       1  UNL1       -0.2042
      3 C         138.5469  137.8804  165.7700 C.ar    1  UNL1        0.1401
      4 C         138.1606  138.7192  166.9521 C.ar    1  UNL1        0.0294
      5 C         138.7369  140.0942  167.1164 C.ar    1  UNL1       -0.0003
      6 C         139.6995  140.6306  166.0988 C.ar    1  UNL1       -0.0035
      7 C         140.0858  139.7918  164.9167 C.ar    1  UNL1       -0.0003
      8 C         139.5095  138.4168  164.7524 C.ar    1  UNL1        0.0294
      9 C         141.0315  142.3580  167.5101 C.ar    1  UNL1       -0.0035
     10 C         142.4621  141.9343  167.6651 C.ar    1  UNL1       -0.0003
     11 C         143.2177  142.2867  168.9120 C.ar    1  UNL1        0.0294
     12 C         142.5428  143.0628  170.0039 C.ar    1  UNL1        0.1401
     13 F         143.2985  143.4151  171.2509 F       1  UNL1       -0.2042
     14 C         141.1123  143.4865  169.8489 C.ar    1  UNL1        0.0294
     15 C         140.3566  143.1341  168.6020 C.ar    1  UNL1       -0.0003
     16 N         140.0966  143.0283  165.1806 N.3     1  UNL1       -0.2644
     17 C         138.7308  143.2976  164.6220 C.3     1  UNL1        0.0901
     18 C         138.5515  144.3203  163.5394 C.3     1  UNL1        0.0899
     19 N         139.7380  145.0738  163.0155 N.3     1  UNL1       -0.2665
     20 C         141.1038  144.8046  163.5742 C.3     1  UNL1        0.0899
     21 C         141.2831  143.7819  164.6567 C.3     1  UNL1        0.0901
     22 C         139.5588  146.0966  161.9330 C.3     1  UNL1        0.0989
     23 C         140.2460  145.9183  160.6116 C.2     1  UNL1       -0.0088
     24 C         140.2985  144.5634  159.9703 C.2     1  UNL1       -0.0032
     25 C         140.9857  144.3852  158.6489 C.ar    1  UNL1       -0.0003
     26 C         141.2589  143.0063  158.1256 C.ar    1  UNL1       -0.0000
     27 C         141.9461  142.8280  156.8042 C.ar    1  UNL1       -0.0000
     28 C         142.3602  144.0287  156.0062 C.ar    1  UNL1       -0.0000
     29 C         142.0870  145.4076  156.5295 C.ar    1  UNL1       -0.0000
     30 C         141.3998  145.5858  157.8509 C.ar    1  UNL1       -0.0000
@<TRIPOS>BOND
     1     2     3    1
     2     3     4   ar
     3     4     5   ar
     4     5     6   ar
     5     6     1    1
     6     1     9    1
     7     9    10   ar
     8    10    11   ar
     9    11    12   ar
    10    12    13    1
    11    12    14   ar
    12    14    15   ar
    13     1    16    1
    14    16    17    1
    15    17    18    1
    16    18    19    1
    17    19    22    1
    18    22    23    1
    19    23    24    2
    20    24    25    1
    21    25    26   ar
    22    26    27   ar
    23    27    28   ar
    24    28    29   ar
    25    29    30   ar
    26    19    20    1
    27    20    21    1
    28     6     7   ar
    29     7     8   ar
    30     8     3   ar
    31    15     9   ar
    32    21    16    1
    33    30    25   ar
@<TRIPOS>MOLECULE
*****
 30 33 0 0 0
SMALL
GASTEIGER

@<TRIPOS>ATOM
      1 C         141.3205  140.0392  163.3397 C.3     1  UNL1        0.1031
      2 F         137.2039  137.6768  167.0102 F       1  UNL1       -0.2042
      3 C         138.2331  138.2674  166.0925 C.ar    1  UNL1        0.1401
      4 C         138.5727  139.7254  166.1859 C.ar    1  UNL1        0.0294
      5 C         139.6019  140.3160  165.2682 C.ar    1  UNL1       -0.0003
      6 C         140.2914  139.4486  164.2573 C.ar    1  UNL1       -0.0035
      7 C         139.9518  137.9906  164.1639 C.ar    1  UNL1       -0.0003
      8 C         138.9226  137.4000  165.0816 C.ar    1  UNL1        0.0294
      9 C         142.1071  141.2417  163.7699 C.ar    1  UNL1       -0.0035
     10 C         141.6853  142.6116  163.3273 C.ar    1  UNL1       -0.0003
     11 C         142.4720  143.8141  163.7575 C.ar    1  UNL1        0.0294
     12 C         143.6804  143.6469  164.6303 C.ar    1  UNL1        0.1401
     13 F         144.4670  144.8495  165.0605 F       1  UNL1       -0.2042
     14 C         144.1022  142.2772  165.0728 C.ar    1  UNL1        0.0294
     15 C         143.3156  141.0746  164.6426 C.ar    1  UNL1       -0.0003
     16 N         141.5631  139.4273  161.9918 N.3     1  UNL1       -0.2644
     17 C         142.6843  138.4489  161.8031 C.3     1  UNL1        0.0901
     18 C         142.9268  137.8370  160.4552 C.3     1  UNL1        0.0899
     19 N         142.0481  138.2035  159.2961 N.3     1  UNL1       -0.2665
     20 C         140.9269  139.1819  159.4848 C.3     1  UNL1        0.0899
     21 C         140.6844  139.7938  160.8326 C.3     1  UNL1        0.0901
     22 C         142.2906  137.5915  157.9482 C.3     1  UNL1        0.0989
     23 C         142.9828  136.2652  157.8402 C.2     1  UNL1       -0.0088
     24 C         142.7060  135.3677  156.6707 C.2     1  UNL1       -0.0032
     25 C         143.3983  134.0414  156.5627 C.ar    1  UNL1       -0.0003
     26 C         144.2571  133.5497  157.6899 C.ar    1  UNL1       -0.0000
     27 C         144.9493  132.2234  157.5819 C.ar    1  UNL1       -0.0000
     28 C         144.7827  131.3887  156.3468 C.ar    1  UNL1       -0.0000
     29 C         143.9239  131.8804  155.2196 C.ar    1  UNL1       -0.0000
     30 C         143.2316  133.2068  155.3276 C.ar    1  UNL1       -0.0000
@<TRIPOS>BOND
     1     2     3    1
     2     3     4   ar
     3     4     5   ar
     4     5     6   ar
     5     6     1    1
     6     1     9    1
     7     9    10   ar
     8    10    11   ar
     9    11    12   ar
    10    12    13    1
    11    12    14   ar
    12    14    15   ar
    13     1    16    1
    14    16    17    1
    15    17    18    1
    16    18    19    1
    17    19    22    1
    18    22    23    1
    19    23    24    2
    20    24    25    1
    21    25    26   ar
    22    26    27   ar
    23    27    28   ar
    24    28    29   ar
    25    29    30   ar
    26    19    20    1
    27    20    21    1
    28     6     7   ar
    29     7     8   ar
    30     8     3   ar
    31    15     9   ar
    32    21    16    1
    33    30    25   ar
@<TRIPOS>MOLECULE
*****
 30 33 0 0 0
SMALL
GASTEIGER

@<TRIPOS>ATOM
      1 C         141.2065  140.3368  162.9379 C.3     1  UNL1        0.1031
      2 F         144.0029  145.4523  164.3563 F       1  UNL1       -0.2042
      3 C         143.3038  144.1734  164.0017 C.ar    1  UNL1        0.1401
      4 C         142.2889  144.1548  162.8974 C.ar    1  UNL1        0.0294
      5 C         141.5898  142.8759  162.5428 C.ar    1  UNL1       -0.0003
      6 C         141.9056  141.6157  163.2925 C.ar    1  UNL1       -0.0035
      7 C         142.9205  141.6344  164.3969 C.ar    1  UNL1       -0.0003
      8 C         143.6196  142.9132  164.7514 C.ar    1  UNL1        0.0294
      9 C         140.2462  139.7134  163.9070 C.ar    1  UNL1       -0.0035
     10 C         139.3504  140.5824  164.7392 C.ar    1  UNL1       -0.0003
     11 C         138.3900  139.9590  165.7083 C.ar    1  UNL1        0.0294
     12 C         138.3254  138.4667  165.8451 C.ar    1  UNL1        0.1401
     13 F         137.3650  137.8433  166.8142 F       1  UNL1       -0.2042
     14 C         139.2211  137.5977  165.0129 C.ar    1  UNL1        0.0294
     15 C         140.1815  138.2211  164.0438 C.ar    1  UNL1       -0.0003
     16 N         141.4677  139.6813  161.6143 N.3     1  UNL1       -0.2644
     17 C         140.4535  139.7831  160.5138 C.3     1  UNL1        0.0901
     18 C         140.7148  139.1275  159.1902 C.3     1  UNL1        0.0899
     19 N         141.9903  138.3703  158.9670 N.3     1  UNL1       -0.2665
     20 C         143.0045  138.2686  160.0675 C.3     1  UNL1        0.0899
     21 C         142.7433  138.9241  161.3911 C.3     1  UNL1        0.0901
     22 C         142.2516  137.7148  157.6433 C.3     1  UNL1        0.0989
     23 C         142.9933  136.4123  157.5849 C.2     1  UNL1       -0.0088
     24 C         142.5932  135.3655  156.5878 C.2     1  UNL1       -0.0032
     25 C         143.3349  134.0630  156.5294 C.ar    1  UNL1       -0.0003
     26 C         144.1569  133.6148  157.7013 C.ar    1  UNL1       -0.0000
     27 C         144.8986  132.3123  157.6428 C.ar    1  UNL1       -0.0000
     28 C         144.8182  131.4580  156.4125 C.ar    1  UNL1       -0.0000
     29 C         143.9962  131.9062  155.2406 C.ar    1  UNL1       -0.0000
     30 C         143.2545  133.2087  155.2991 C.ar    1  UNL1       -0.0000
@<TRIPOS>BOND
     1     2     3    1
     2     3     4   ar
     3     4     5   ar
     4     5     6   ar
     5     6     1    1
     6     1     9    1
     7     9    10   ar
     8    10    11   ar
     9    11    12   ar
    10    12    13    1
    11    12    14   ar
    12    14    15   ar
    13     1    16    1
    14    16    17    1
    15    17    18    1
    16    18    19    1
    17    19    22    1
    18    22    23    1
    19    23    24    2
    20    24    25    1
    21    25    26   ar
    22    26    27   ar
    23    27    28   ar
    24    28    29   ar
    25    29    30   ar
    26    19    20    1
    27    20    21    1
    28     6     7   ar
    29     7     8   ar
    30     8     3   ar
    31    15     9   ar
    32    21    16    1
    33    30    25   ar
@<TRIPOS>MOLECULE
*****
 30 33 0 0 0
SMALL
GASTEIGER

@<TRIPOS>ATOM
      1 C         141.2634  140.3253  163.0471 C.3     1  UNL1        0.1031
      2 F         144.0999  145.3895  164.5661 F       1  UNL1       -0.2042
      3 C         143.3908  144.1235  164.1864 C.ar    1  UNL1        0.1401
      4 C         142.2612  144.1633  163.2003 C.ar    1  UNL1        0.0294
      5 C         141.5520  142.8973  162.8206 C.ar    1  UNL1       -0.0003
      6 C         141.9726  141.5913  163.4269 C.ar    1  UNL1       -0.0035
      7 C         143.1022  141.5514  164.4129 C.ar    1  UNL1       -0.0003
      8 C         143.8113  142.8175  164.7926 C.ar    1  UNL1        0.0294
      9 C         140.3060  139.6847  164.0078 C.ar    1  UNL1       -0.0035
     10 C         140.2377  138.1900  164.1143 C.ar    1  UNL1       -0.0003
     11 C         139.2803  137.5495  165.0750 C.ar    1  UNL1        0.0294
     12 C         138.3912  138.4036  165.9294 C.ar    1  UNL1        0.1401
     13 F         137.4338  137.7630  166.8902 F       1  UNL1       -0.2042
     14 C         138.4595  139.8983  165.8230 C.ar    1  UNL1        0.0294
     15 C         139.4169  140.5389  164.8622 C.ar    1  UNL1       -0.0003
     16 N         141.5117  139.6997  161.7066 N.3     1  UNL1       -0.2644
     17 C         142.7995  138.9771  161.4431 C.3     1  UNL1        0.0901
     18 C         143.0478  138.3515  160.1025 C.3     1  UNL1        0.0899
     19 N         142.0082  138.4486  159.0255 N.3     1  UNL1       -0.2665
     20 C         140.7204  139.1711  159.2890 C.3     1  UNL1        0.0899
     21 C         140.4722  139.7967  160.6295 C.3     1  UNL1        0.0901
     22 C         142.2565  137.8230  157.6849 C.3     1  UNL1        0.0989
     23 C         142.9747  136.5094  157.5917 C.2     1  UNL1       -0.0088
     24 C         142.4914  135.4563  156.6391 C.2     1  UNL1       -0.0032
     25 C         143.2097  134.1427  156.5459 C.ar    1  UNL1       -0.0003
     26 C         144.1004  133.6938  157.6662 C.ar    1  UNL1       -0.0000
     27 C         144.8186  132.3803  157.5730 C.ar    1  UNL1       -0.0000
     28 C         144.6461  131.5156  156.3595 C.ar    1  UNL1       -0.0000
     29 C         143.7553  131.9645  155.2392 C.ar    1  UNL1       -0.0000
     30 C         143.0371  133.2781  155.3325 C.ar    1  UNL1       -0.0000
@<TRIPOS>BOND
     1     2     3    1
     2     3     4   ar
     3     4     5   ar
     4     5     6   ar
     5     6     1    1
     6     1     9    1
     7     9    10   ar
     8    10    11   ar
     9    11    12   ar
    10    12    13    1
    11    12    14   ar
    12    14    15   ar
    13     1    16    1
    14    16    17    1
    15    17    18    1
    16    18    19    1
    17    19    22    1
    18    22    23    1
    19    23    24    2
    20    24    25    1
    21    25    26   ar
    22    26    27   ar
    23    27    28   ar
    24    28    29   ar
    25    29    30   ar
    26    19    20    1
    27    20    21    1
    28     6     7   ar
    29     7     8   ar
    30     8     3   ar
    31    15     9   ar
    32    21    16    1
    33    30    25   ar
@<TRIPOS>MOLECULE
*****
 30 33 0 0 0
SMALL
GASTEIGER

@<TRIPOS>ATOM
      1 C         140.5866  143.1158  160.7803 C.3     1  UNL1        0.1031
      2 F         144.4504  138.5350  161.0764 F       1  UNL1       -0.2042
      3 C         143.4845  139.6802  161.0024 C.ar    1  UNL1        0.1401
      4 C         142.0111  139.4140  160.9115 C.ar    1  UNL1        0.0294
      5 C         141.0452  140.5592  160.8375 C.ar    1  UNL1       -0.0003
      6 C         141.5526  141.9706  160.8543 C.ar    1  UNL1       -0.0035
      7 C         143.0259  142.2369  160.9452 C.ar    1  UNL1       -0.0003
      8 C         143.9919  141.0917  161.0192 C.ar    1  UNL1        0.0294
      9 C         139.9514  143.6433  162.0326 C.ar    1  UNL1       -0.0035
     10 C         140.8006  144.2746  163.0958 C.ar    1  UNL1       -0.0003
     11 C         140.1654  144.8021  164.3481 C.ar    1  UNL1        0.0294
     12 C         138.6810  144.6984  164.5371 C.ar    1  UNL1        0.1401
     13 F         138.0458  145.2259  165.7895 F       1  UNL1       -0.2042
     14 C         137.8318  144.0671  163.4740 C.ar    1  UNL1        0.0294
     15 C         138.4670  143.5396  162.2217 C.ar    1  UNL1       -0.0003
     16 N         140.2559  143.7335  159.4540 N.3     1  UNL1       -0.2644
     17 C         140.6953  145.1349  159.1489 C.3     1  UNL1        0.0901
     18 C         140.3645  145.7526  157.8226 C.3     1  UNL1        0.0899
     19 N         139.5944  144.9688  156.8014 N.3     1  UNL1       -0.2665
     20 C         139.1551  143.5675  157.1065 C.3     1  UNL1        0.0899
     21 C         139.4858  142.9498  158.4328 C.3     1  UNL1        0.0901
     22 C         139.2637  145.5865  155.4751 C.3     1  UNL1        0.0989
     23 C         138.9300  147.0465  155.3900 C.2     1  UNL1       -0.0088
     24 C         139.7250  147.9463  154.4910 C.2     1  UNL1       -0.0032
     25 C         139.3913  149.4063  154.4059 C.ar    1  UNL1       -0.0003
     26 C         138.7978  150.1102  155.5900 C.ar    1  UNL1       -0.0000
     27 C         138.4642  151.5702  155.5049 C.ar    1  UNL1       -0.0000
     28 C         138.7240  152.3262  154.2357 C.ar    1  UNL1       -0.0000
     29 C         139.3175  151.6222  153.0516 C.ar    1  UNL1       -0.0000
     30 C         139.6512  150.1623  153.1367 C.ar    1  UNL1       -0.0000
@<TRIPOS>BOND
     1     2     3    1
     2     3     4   ar
     3     4     5   ar
     4     5     6   ar
     5     6     1    1
     6     1     9    1
     7     9    10   ar
     8    10    11   ar
     9    11    12   ar
    10    12    13    1
    11    12    14   ar
    12    14    15   ar
    13     1    16    1
    14    16    17    1
    15    17    18    1
    16    18    19    1
    17    19    22    1
    18    22    23    1
    19    23    24    2
    20    24    25    1
    21    25    26   ar
    22    26    27   ar
    23    27    28   ar
    24    28    29   ar
    25    29    30   ar
    26    19    20    1
    27    20    21    1
    28     6     7   ar
    29     7     8   ar
    30     8     3   ar
    31    15     9   ar
    32    21    16    1
    33    30    25   ar
@<TRIPOS>MOLECULE
*****
 30 33 0 0 0
SMALL
GASTEIGER

@<TRIPOS>ATOM
      1 C         140.6976  141.6360  166.1570 C.3     1  UNL1        0.1031
      2 F         143.2476  143.4652  171.2708 F       1  UNL1       -0.2042
      3 C         142.6101  143.0079  169.9924 C.ar    1  UNL1        0.1401
      4 C         143.4154  142.2425  168.9847 C.ar    1  UNL1        0.0294
      5 C         142.7779  141.7852  167.7062 C.ar    1  UNL1       -0.0003
      6 C         141.3351  142.0933  167.4355 C.ar    1  UNL1       -0.0035
      7 C         140.5298  142.8587  168.4432 C.ar    1  UNL1       -0.0003
      8 C         141.1673  143.3160  169.7217 C.ar    1  UNL1        0.0294
      9 C         139.9597  140.3308  166.1119 C.ar    1  UNL1       -0.0035
     10 C         138.7995  140.0929  167.0325 C.ar    1  UNL1       -0.0003
     11 C         138.0616  138.7877  166.9873 C.ar    1  UNL1        0.0294
     12 C         138.4839  137.7205  166.0216 C.ar    1  UNL1        0.1401
     13 F         137.7460  136.4152  165.9764 F       1  UNL1       -0.2042
     14 C         139.6440  137.9583  165.1010 C.ar    1  UNL1        0.0294
     15 C         140.3820  139.2636  165.1462 C.ar    1  UNL1       -0.0003
     16 N         140.7979  142.4838  164.9238 N.3     1  UNL1       -0.2644
     17 C         141.7642  142.1157  163.8371 C.3     1  UNL1        0.0901
     18 C         141.8645  142.9636  162.6038 C.3     1  UNL1        0.0899
     19 N         140.9985  144.1796  162.4571 N.3     1  UNL1       -0.2665
     20 C         140.0323  144.5477  163.5438 C.3     1  UNL1        0.0899
     21 C         139.9319  143.6999  164.7771 C.3     1  UNL1        0.0901
     22 C         141.0988  145.0275  161.2238 C.3     1  UNL1        0.0989
     23 C         140.1409  144.8169  160.0889 C.2     1  UNL1       -0.0088
     24 C         140.4998  143.8881  158.9671 C.2     1  UNL1       -0.0032
     25 C         139.5419  143.6775  157.8322 C.ar    1  UNL1       -0.0003
     26 C         138.3499  142.7849  158.0126 C.ar    1  UNL1       -0.0000
     27 C         137.3920  142.5743  156.8777 C.ar    1  UNL1       -0.0000
     28 C         137.6260  143.2562  155.5624 C.ar    1  UNL1       -0.0000
     29 C         138.8179  144.1487  155.3819 C.ar    1  UNL1       -0.0000
     30 C         139.7759  144.3594  156.5168 C.ar    1  UNL1       -0.0000
@<TRIPOS>BOND
     1     2     3    1
     2     3     4   ar
     3     4     5   ar
     4     5     6   ar
     5     6     1    1
     6     1     9    1
     7     9    10   ar
     8    10    11   ar
     9    11    12   ar
    10    12    13    1
    11    12    14   ar
    12    14    15   ar
    13     1    16    1
    14    16    17    1
    15    17    18    1
    16    18    19    1
    17    19    22    1
    18    22    23    1
    19    23    24    2
    20    24    25    1
    21    25    26   ar
    22    26    27   ar
    23    27    28   ar
    24    28    29   ar
    25    29    30   ar
    26    19    20    1
    27    20    21    1
    28     6     7   ar
    29     7     8   ar
    30     8     3   ar
    31    15     9   ar
    32    21    16    1
    33    30    25   ar
@<TRIPOS>MOLECULE
*****
 30 33 0 0 0
SMALL
GASTEIGER

@<TRIPOS>ATOM
      1 C         141.0261  141.0857  165.6064 C.3     1  UNL1        0.1031
      2 F         136.6952  144.9179  164.0067 F       1  UNL1       -0.2042
      3 C         137.7780  143.9598  164.4066 C.ar    1  UNL1        0.1401
      4 C         137.7047  142.5241  163.9785 C.ar    1  UNL1        0.0294
      5 C         138.7874  141.5661  164.3785 C.ar    1  UNL1       -0.0003
      6 C         139.9434  142.0438  165.2064 C.ar    1  UNL1       -0.0035
      7 C         140.0166  143.4795  165.6345 C.ar    1  UNL1       -0.0003
      8 C         138.9339  144.4375  165.2346 C.ar    1  UNL1        0.0294
      9 C         141.3764  140.9118  167.0544 C.ar    1  UNL1       -0.0035
     10 C         140.4698  140.1280  167.9566 C.ar    1  UNL1       -0.0003
     11 C         140.8201  139.9541  169.4046 C.ar    1  UNL1        0.0294
     12 C         142.0770  140.5640  169.9507 C.ar    1  UNL1        0.1401
     13 F         142.4273  140.3901  171.3989 F       1  UNL1       -0.2042
     14 C         142.9836  141.3478  169.0487 C.ar    1  UNL1        0.0294
     15 C         142.6333  141.5218  167.6005 C.ar    1  UNL1       -0.0003
     16 N         141.7585  140.3016  164.5582 N.3     1  UNL1       -0.2644
     17 C         142.7949  140.9731  163.7068 C.3     1  UNL1        0.0901
     18 C         143.5273  140.1889  162.6585 C.3     1  UNL1        0.0899
     19 N         143.2232  138.7333  162.4618 N.3     1  UNL1       -0.2665
     20 C         142.1868  138.0618  163.3133 C.3     1  UNL1        0.0899
     21 C         141.4544  138.8459  164.3614 C.3     1  UNL1        0.0901
     22 C         143.9557  137.9491  161.4136 C.3     1  UNL1        0.0989
     23 C         143.2084  137.3798  160.2442 C.2     1  UNL1       -0.0088
     24 C         142.7377  138.2832  159.1432 C.2     1  UNL1       -0.0032
     25 C         141.9905  137.7139  157.9737 C.ar    1  UNL1       -0.0003
     26 C         140.5861  138.1593  157.6923 C.ar    1  UNL1       -0.0000
     27 C         139.8389  137.5900  156.5228 C.ar    1  UNL1       -0.0000
     28 C         140.4961  136.5754  155.6348 C.ar    1  UNL1       -0.0000
     29 C         141.9005  136.1301  155.9163 C.ar    1  UNL1       -0.0000
     30 C         142.6477  136.6993  157.0857 C.ar    1  UNL1       -0.0000
@<TRIPOS>BOND
     1     2     3    1
     2     3     4   ar
     3     4     5   ar
     4     5     6   ar
     5     6     1    1
     6     1     9    1
     7     9    10   ar
     8    10    11   ar
     9    11    12   ar
    10    12    13    1
    11    12    14   ar
    12    14    15   ar
    13     1    16    1
    14    16    17    1
    15    17    18    1
    16    18    19    1
    17    19    22    1
    18    22    23    1
    19    23    24    2
    20    24    25    1
    21    25    26   ar
    22    26    27   ar
    23    27    28   ar
    24    28    29   ar
    25    29    30   ar
    26    19    20    1
    27    20    21    1
    28     6     7   ar
    29     7     8   ar
    30     8     3   ar
    31    15     9   ar
    32    21    16    1
    33    30    25   ar
@<TRIPOS>MOLECULE
*****
 30 33 0 0 0
SMALL
GASTEIGER

@<TRIPOS>ATOM
      1 C         140.9744  140.8528  162.9319 C.3     1  UNL1        0.1031
      2 F         137.7562  145.1190  165.6599 F       1  UNL1       -0.2042
      3 C         138.5607  144.0525  164.9779 C.ar    1  UNL1        0.1401
      4 C         137.8864  142.8105  164.4751 C.ar    1  UNL1        0.0294
      5 C         138.6910  141.7439  163.7931 C.ar    1  UNL1       -0.0003
      6 C         140.1698  141.9193  163.6139 C.ar    1  UNL1       -0.0035
      7 C         140.8441  143.1613  164.1166 C.ar    1  UNL1       -0.0003
      8 C         140.0396  144.2279  164.7986 C.ar    1  UNL1        0.0294
      9 C         142.1624  140.2522  163.6230 C.ar    1  UNL1       -0.0035
     10 C         143.5464  140.5377  163.1199 C.ar    1  UNL1       -0.0003
     11 C         144.7345  139.9371  163.8110 C.ar    1  UNL1        0.0294
     12 C         144.5386  139.0511  165.0054 C.ar    1  UNL1        0.1401
     13 F         145.7268  138.4505  165.6966 F       1  UNL1       -0.2042
     14 C         143.1547  138.7656  165.5086 C.ar    1  UNL1        0.0294
     15 C         141.9666  139.3661  164.8174 C.ar    1  UNL1       -0.0003
     16 N         140.5909  140.3868  161.5587 N.3     1  UNL1       -0.2644
     17 C         140.7034  141.3213  160.3908 C.3     1  UNL1        0.0901
     18 C         140.3199  140.8552  159.0175 C.3     1  UNL1        0.0899
     19 N         139.8238  139.4547  158.8122 N.3     1  UNL1       -0.2665
     20 C         139.7112  138.5201  159.9801 C.3     1  UNL1        0.0899
     21 C         140.0947  138.9861  161.3533 C.3     1  UNL1        0.0901
     22 C         139.4403  138.9886  157.4390 C.3     1  UNL1        0.0989
     23 C         139.9329  137.6660  156.9310 C.2     1  UNL1       -0.0088
     24 C         141.4048  137.4248  156.7718 C.2     1  UNL1       -0.0032
     25 C         141.8975  136.1022  156.2639 C.ar    1  UNL1       -0.0003
     26 C         141.1176  135.3630  155.2174 C.ar    1  UNL1       -0.0000
     27 C         141.6103  134.0404  154.7094 C.ar    1  UNL1       -0.0000
     28 C         142.8829  133.4571  155.2480 C.ar    1  UNL1       -0.0000
     29 C         143.6628  134.1963  156.2945 C.ar    1  UNL1       -0.0000
     30 C         143.1701  135.5189  156.8024 C.ar    1  UNL1       -0.0000
@<TRIPOS>BOND
     1     2     3    1
     2     3     4   ar
     3     4     5   ar
     4     5     6   ar
     5     6     1    1
     6     1     9    1
     7     9    10   ar
     8    10    11   ar
     9    11    12   ar
    10    12    13    1
    11    12    14   ar
    12    14    15   ar
    13     1    16    1
    14    16    17    1
    15    17    18    1
    16    18    19    1
    17    19    22    1
    18    22    23    1
    19    23    24    2
    20    24    25    1
    21    25    26   ar
    22    26    27   ar
    23    27    28   ar
    24    28    29   ar
    25    29    30   ar
    26    19    20    1
    27    20    21    1
    28     6     7   ar
    29     7     8   ar
    30     8     3   ar
    31    15     9   ar
    32    21    16    1
    33    30    25   ar
