@<TRIPOS>MOLECULE
*****
 23 25 0 0 0
SMALL
GASTEIGER

@<TRIPOS>ATOM
      1 C         140.7276  140.9027  166.6258 C.ar    1  UNL1        0.0267
      2 C         140.9773  139.4384  166.4177 C.ar    1  UNL1        0.1011
      3 N         140.3301  138.7231  165.2691 N.ar    1  UNL1       -0.2251
      4 C         139.4333  139.4721  164.3286 C.ar    1  UNL1        0.1633
      5 C         139.1836  140.9364  164.5366 C.ar    1  UNL1        0.0986
      6 C         139.8308  141.6517  165.6852 C.ar    1  UNL1        0.0224
      7 N         138.2586  141.4073  163.4537 N.ar    1  UNL1       -0.2694
      8 C         137.9366  140.2340  162.5764 C.ar    1  UNL1        0.3331
      9 O         137.0451  140.2535  161.3702 O.2     1  UNL1       -0.2462
     10 N         138.6626  139.0379  163.1170 N.ar    1  UNL1       -0.2630
     11 C         138.6245  137.6512  162.5464 C.3     1  UNL1        0.1366
     12 C         144.3424  142.6830  170.0384 C.3     1  UNL1        0.0316
     13 C         143.0363  142.4364  169.3430 C.ar    1  UNL1       -0.0149
     14 C         141.7051  143.0017  169.7410 C.ar    1  UNL1        0.0312
     15 S         140.6783  142.4960  168.7716 S.2     1  UNL1       -0.0867
     16 C         141.3749  141.6182  167.7745 C.ar    1  UNL1        0.0307
     17 C         142.8322  141.5814  168.1277 C.ar    1  UNL1        0.0028
     18 C         137.7457  142.8060  163.2789 C.3     1  UNL1        0.1956
     19 C         138.4856  143.7721  162.4018 C.2     1  UNL1        0.2490
     20 O         138.4239  143.6293  160.9099 O.2     1  UNL1       -0.2728
     21 N         139.2873  144.8808  163.0166 N.am    1  UNL1       -0.2744
     22 C         140.0272  145.8468  162.1395 C.3     1  UNL1        0.1150
     23 C         139.3491  145.0236  164.5085 C.3     1  UNL1        0.1150
@<TRIPOS>BOND
     1    12    13    1
     2    13    14   ar
     3    14    15   ar
     4    15    16   ar
     5    16     1    1
     6     1     2   ar
     7     2     3   ar
     8     3     4   ar
     9     4     5   ar
    10     5     6   ar
    11     5     7   ar
    12     7    18    1
    13    18    19    1
    14    19    20    2
    15    19    21   am
    16    21    22    1
    17    21    23    1
    18     7     8   ar
    19     8     9    2
    20     8    10   ar
    21    10    11    1
    22    16    17   ar
    23    17    13   ar
    24     6     1   ar
    25    10     4   ar
@<TRIPOS>MOLECULE
*****
 23 25 0 0 0
SMALL
GASTEIGER

@<TRIPOS>ATOM
      1 C         141.7979  141.1094  166.9979 C.ar    1  UNL1        0.0267
      2 C         142.8354  142.1832  166.8545 C.ar    1  UNL1        0.1011
      3 N         143.7499  142.1884  165.6655 N.ar    1  UNL1       -0.2251
      4 C         143.6269  141.1198  164.6201 C.ar    1  UNL1        0.1633
      5 C         142.5895  140.0460  164.7635 C.ar    1  UNL1        0.0986
      6 C         141.6750  140.0408  165.9525 C.ar    1  UNL1        0.0224
      7 N         142.7035  139.1303  163.5810 N.ar    1  UNL1       -0.2694
      8 C         143.8115  139.6382  162.7066 C.ar    1  UNL1        0.3331
      9 O         144.2685  139.0242  161.4165 O.2     1  UNL1       -0.2462
     10 N         144.3822  140.8678  163.3488 N.ar    1  UNL1       -0.2630
     11 C         145.5101  141.6993  162.8137 C.3     1  UNL1        0.1366
     12 C         137.9380  139.8108  170.3588 C.3     1  UNL1        0.0316
     13 C         139.1091  140.5073  169.7317 C.ar    1  UNL1       -0.0149
     14 C         139.8429  141.6852  170.3013 C.ar    1  UNL1        0.0312
     15 S         140.9394  142.0540  169.3466 S.2     1  UNL1       -0.0867
     16 C         140.8833  141.1042  168.1869 C.ar    1  UNL1        0.0307
     17 C         139.7522  140.1483  168.4250 C.ar    1  UNL1        0.0028
     18 C         141.8581  137.9194  163.3188 C.3     1  UNL1        0.1956
     19 C         140.6986  138.0051  162.3711 C.2     1  UNL1        0.2490
     20 O         140.9430  138.1403  160.8973 O.2     1  UNL1       -0.2728
     21 N         139.2947  137.9555  162.8970 N.am    1  UNL1       -0.2744
     22 C         138.1352  138.0412  161.9493 C.3     1  UNL1        0.1150
     23 C         139.0502  137.8203  164.3708 C.3     1  UNL1        0.1150
@<TRIPOS>BOND
     1    12    13    1
     2    13    14   ar
     3    14    15   ar
     4    15    16   ar
     5    16     1    1
     6     1     2   ar
     7     2     3   ar
     8     3     4   ar
     9     4     5   ar
    10     5     6   ar
    11     5     7   ar
    12     7    18    1
    13    18    19    1
    14    19    20    2
    15    19    21   am
    16    21    22    1
    17    21    23    1
    18     7     8   ar
    19     8     9    2
    20     8    10   ar
    21    10    11    1
    22    16    17   ar
    23    17    13   ar
    24     6     1   ar
    25    10     4   ar
@<TRIPOS>MOLECULE
*****
 23 25 0 0 0
SMALL
GASTEIGER

@<TRIPOS>ATOM
      1 C         141.5641  141.6890  166.8128 C.ar    1  UNL1        0.0267
      2 C         140.4675  142.6998  166.6532 C.ar    1  UNL1        0.1011
      3 N         140.4105  143.5566  165.4233 N.ar    1  UNL1       -0.2251
      4 C         141.4501  143.4025  164.3531 C.ar    1  UNL1        0.1633
      5 C         142.5467  142.3917  164.5127 C.ar    1  UNL1        0.0986
      6 C         142.6037  141.5349  165.7426 C.ar    1  UNL1        0.0224
      7 N         143.4251  142.4652  163.2990 N.ar    1  UNL1       -0.2694
      8 C         142.8714  143.5215  162.3893 C.ar    1  UNL1        0.3331
      9 O         143.4387  143.9272  161.0612 O.2     1  UNL1       -0.2462
     10 N         141.6507  144.1008  163.0407 N.ar    1  UNL1       -0.2630
     11 C         140.7830  145.1876  162.4785 C.3     1  UNL1        0.1366
     12 C         143.0442  138.0289  170.3191 C.3     1  UNL1        0.0316
     13 C         142.3015  139.1498  169.6544 C.ar    1  UNL1       -0.0149
     14 C         141.1163  139.8776  170.2164 C.ar    1  UNL1        0.0312
     15 S         140.6959  140.9173  169.2203 S.2     1  UNL1       -0.0867
     16 C         141.6212  140.8322  168.0427 C.ar    1  UNL1        0.0307
     17 C         142.6135  139.7398  168.3110 C.ar    1  UNL1        0.0028
     18 C         144.6434  141.6291  163.0405 C.3     1  UNL1        0.1956
     19 C         144.5191  140.1390  162.9220 C.2     1  UNL1        0.2490
     20 O         144.8216  139.2649  164.1028 O.2     1  UNL1       -0.2728
     21 N         144.0923  139.5229  161.6226 N.am    1  UNL1       -0.2744
     22 C         143.9680  138.0328  161.5042 C.3     1  UNL1        0.1150
     23 C         143.7898  140.3970  160.4418 C.3     1  UNL1        0.1150
@<TRIPOS>BOND
     1    12    13    1
     2    13    14   ar
     3    14    15   ar
     4    15    16   ar
     5    16     1    1
     6     1     2   ar
     7     2     3   ar
     8     3     4   ar
     9     4     5   ar
    10     5     6   ar
    11     5     7   ar
    12     7    18    1
    13    18    19    1
    14    19    20    2
    15    19    21   am
    16    21    22    1
    17    21    23    1
    18     7     8   ar
    19     8     9    2
    20     8    10   ar
    21    10    11    1
    22    16    17   ar
    23    17    13   ar
    24     6     1   ar
    25    10     4   ar
@<TRIPOS>MOLECULE
*****
 23 25 0 0 0
SMALL
GASTEIGER

@<TRIPOS>ATOM
      1 C         142.1120  139.8011  165.8556 C.ar    1  UNL1        0.0267
      2 C         142.3542  138.4629  165.2228 C.ar    1  UNL1        0.1011
      3 N         142.8863  138.3807  163.8228 N.ar    1  UNL1       -0.2251
      4 C         143.1762  139.6366  163.0556 C.ar    1  UNL1        0.1633
      5 C         142.9339  140.9748  163.6884 C.ar    1  UNL1        0.0986
      6 C         142.4019  141.0570  165.0884 C.ar    1  UNL1        0.0224
      7 N         143.3104  142.0327  162.6940 N.ar    1  UNL1       -0.2694
      8 C         143.7853  141.3484  161.4465 C.ar    1  UNL1        0.3331
      9 O         144.2598  142.0261  160.1952 O.2     1  UNL1       -0.2462
     10 N         143.7023  139.8675  161.6700 N.ar    1  UNL1       -0.2630
     11 C         144.0794  138.8041  160.6815 C.3     1  UNL1        0.1366
     12 C         138.8423  140.4006  169.9582 C.3     1  UNL1        0.0316
     13 C         140.0770  140.1590  169.1414 C.ar    1  UNL1       -0.0149
     14 C         141.4454  139.8611  169.6790 C.ar    1  UNL1        0.0312
     15 S         142.3742  139.6908  168.5135 S.2     1  UNL1       -0.0867
     16 C         141.5799  139.8834  167.2557 C.ar    1  UNL1        0.0307
     17 C         140.1602  140.1727  167.6438 C.ar    1  UNL1        0.0028
     18 C         143.2266  143.5149  162.9092 C.3     1  UNL1        0.1956
     19 C         142.2031  144.3236  162.1687 C.2     1  UNL1        0.2490
     20 O         142.4158  144.6596  160.7224 O.2     1  UNL1       -0.2728
     21 N         140.9669  144.7964  162.8745 N.am    1  UNL1       -0.2744
     22 C         139.9433  145.6051  162.1341 C.3     1  UNL1        0.1150
     23 C         140.7541  144.4604  164.3208 C.3     1  UNL1        0.1150
@<TRIPOS>BOND
     1    12    13    1
     2    13    14   ar
     3    14    15   ar
     4    15    16   ar
     5    16     1    1
     6     1     2   ar
     7     2     3   ar
     8     3     4   ar
     9     4     5   ar
    10     5     6   ar
    11     5     7   ar
    12     7    18    1
    13    18    19    1
    14    19    20    2
    15    19    21   am
    16    21    22    1
    17    21    23    1
    18     7     8   ar
    19     8     9    2
    20     8    10   ar
    21    10    11    1
    22    16    17   ar
    23    17    13   ar
    24     6     1   ar
    25    10     4   ar
@<TRIPOS>MOLECULE
*****
 23 25 0 0 0
SMALL
GASTEIGER

@<TRIPOS>ATOM
      1 C         140.3495  142.9894  165.9964 C.ar    1  UNL1        0.0267
      2 C         139.2679  144.0076  165.7876 C.ar    1  UNL1        0.1011
      3 N         139.2193  144.7998  164.5149 N.ar    1  UNL1       -0.2251
      4 C         140.2521  144.5738  163.4508 C.ar    1  UNL1        0.1633
      5 C         141.3337  143.5557  163.6596 C.ar    1  UNL1        0.0986
      6 C         141.3823  142.7635  164.9324 C.ar    1  UNL1        0.0224
      7 N         142.2082  143.5520  162.4410 N.ar    1  UNL1       -0.2694
      8 C         141.6672  144.5679  161.4790 C.ar    1  UNL1        0.3331
      9 O         142.2355  144.8948  160.1298 O.2     1  UNL1       -0.2462
     10 N         140.4583  145.1995  162.1031 N.ar    1  UNL1       -0.2630
     11 C         139.6053  146.2688  161.4877 C.3     1  UNL1        0.1366
     12 C         140.9193  141.6855  171.0813 C.3     1  UNL1        0.0316
     13 C         140.6601  141.5978  169.6064 C.ar    1  UNL1       -0.0149
     14 C         140.2861  140.3581  168.8491 C.ar    1  UNL1        0.0312
     15 S         140.1242  140.7286  167.4047 S.2     1  UNL1       -0.0867
     16 C         140.3982  142.1972  167.2692 C.ar    1  UNL1        0.0307
     17 C         140.7294  142.7343  168.6300 C.ar    1  UNL1        0.0028
     18 C         143.4124  142.6847  162.2226 C.3     1  UNL1        0.1956
     19 C         143.4045  141.2591  162.6891 C.2     1  UNL1        0.2490
     20 O         142.2314  140.3760  162.3821 O.2     1  UNL1       -0.2728
     21 N         144.5695  140.7165  163.4625 N.am    1  UNL1       -0.2744
     22 C         144.5615  139.2909  163.9290 C.3     1  UNL1        0.1150
     23 C         145.7426  141.5994  163.7696 C.3     1  UNL1        0.1150
@<TRIPOS>BOND
     1    12    13    1
     2    13    14   ar
     3    14    15   ar
     4    15    16   ar
     5    16     1    1
     6     1     2   ar
     7     2     3   ar
     8     3     4   ar
     9     4     5   ar
    10     5     6   ar
    11     5     7   ar
    12     7    18    1
    13    18    19    1
    14    19    20    2
    15    19    21   am
    16    21    22    1
    17    21    23    1
    18     7     8   ar
    19     8     9    2
    20     8    10   ar
    21    10    11    1
    22    16    17   ar
    23    17    13   ar
    24     6     1   ar
    25    10     4   ar
@<TRIPOS>MOLECULE
*****
 23 25 0 0 0
SMALL
GASTEIGER

@<TRIPOS>ATOM
      1 C         139.6129  140.2992  166.6917 C.ar    1  UNL1        0.0267
      2 C         138.9936  139.1107  166.0181 C.ar    1  UNL1        0.1011
      3 N         138.4470  139.2375  164.6270 N.ar    1  UNL1       -0.2251
      4 C         138.5196  140.5529  163.9096 C.ar    1  UNL1        0.1633
      5 C         139.1389  141.7414  164.5833 C.ar    1  UNL1        0.0986
      6 C         139.6856  141.6146  165.9743 C.ar    1  UNL1        0.0224
      7 N         139.0699  142.9005  163.6337 N.ar    1  UNL1       -0.2694
      8 C         138.4080  142.4284  162.3732 C.ar    1  UNL1        0.3331
      9 O         138.1343  143.2610  161.1558 O.2     1  UNL1       -0.2462
     10 N         138.0678  140.9774  162.5437 N.ar    1  UNL1       -0.2630
     11 C         137.3943  140.1043  161.5268 C.3     1  UNL1        0.1366
     12 C         142.9356  139.6225  170.7393 C.3     1  UNL1        0.0316
     13 C         141.6869  139.8614  169.9433 C.ar    1  UNL1       -0.0149
     14 C         140.3149  140.0934  170.5036 C.ar    1  UNL1        0.0312
     15 S         139.3711  140.2856  169.3538 S.2     1  UNL1       -0.0867
     16 C         140.1597  140.1725  168.0828 C.ar    1  UNL1        0.0307
     17 C         141.5909  139.9103  168.4472 C.ar    1  UNL1        0.0028
     18 C         139.5743  144.2881  163.8983 C.3     1  UNL1        0.1956
     19 C         140.7766  144.8020  163.1631 C.2     1  UNL1        0.2490
     20 O         140.6021  145.7135  161.9846 O.2     1  UNL1       -0.2728
     21 N         142.1533  144.4044  163.6062 N.am    1  UNL1       -0.2744
     22 C         143.3556  144.9183  162.8710 C.3     1  UNL1        0.1150
     23 C         142.3280  143.4929  164.7846 C.3     1  UNL1        0.1150
@<TRIPOS>BOND
     1    12    13    1
     2    13    14   ar
     3    14    15   ar
     4    15    16   ar
     5    16     1    1
     6     1     2   ar
     7     2     3   ar
     8     3     4   ar
     9     4     5   ar
    10     5     6   ar
    11     5     7   ar
    12     7    18    1
    13    18    19    1
    14    19    20    2
    15    19    21   am
    16    21    22    1
    17    21    23    1
    18     7     8   ar
    19     8     9    2
    20     8    10   ar
    21    10    11    1
    22    16    17   ar
    23    17    13   ar
    24     6     1   ar
    25    10     4   ar
@<TRIPOS>MOLECULE
*****
 23 25 0 0 0
SMALL
GASTEIGER

@<TRIPOS>ATOM
      1 C         142.6969  141.4456  166.4458 C.ar    1  UNL1        0.0267
      2 C         142.7604  139.9544  166.2968 C.ar    1  UNL1        0.1011
      3 N         143.1018  139.3473  164.9683 N.ar    1  UNL1       -0.2251
      4 C         143.3798  140.2314  163.7889 C.ar    1  UNL1        0.1633
      5 C         143.3164  141.7226  163.9379 C.ar    1  UNL1        0.0986
      6 C         142.9749  142.3297  165.2663 C.ar    1  UNL1        0.0224
      7 N         143.6369  142.3354  162.6069 N.ar    1  UNL1       -0.2694
      8 C         143.8985  141.2230  161.6352 C.ar    1  UNL1        0.3331
      9 O         144.2562  141.3829  160.1873 O.2     1  UNL1       -0.2462
     10 N         143.7396  139.9226  162.3657 N.ar    1  UNL1       -0.2630
     11 C         143.9105  138.5537  161.7766 C.3     1  UNL1        0.1366
     12 C         140.0351  143.7670  170.3710 C.3     1  UNL1        0.0316
     13 C         141.1319  143.1197  169.5784 C.ar    1  UNL1       -0.0149
     14 C         142.5280  142.8543  170.0586 C.ar    1  UNL1        0.0312
     15 S         143.2841  142.1949  168.9436 S.2     1  UNL1       -0.0867
     16 C         142.3554  142.0527  167.7743 C.ar    1  UNL1        0.0307
     17 C         141.0253  142.6243  168.1666 C.ar    1  UNL1        0.0028
     18 C         143.6870  143.8031  162.3012 C.3     1  UNL1        0.1956
     19 C         142.4389  144.6305  162.3887 C.2     1  UNL1        0.2490
     20 O         142.1030  145.3487  163.6620 O.2     1  UNL1       -0.2728
     21 N         141.5267  144.7397  161.2030 N.am    1  UNL1       -0.2744
     22 C         140.2787  145.5671  161.2906 C.3     1  UNL1        0.1150
     23 C         141.8626  144.0215  159.9297 C.3     1  UNL1        0.1150
@<TRIPOS>BOND
     1    12    13    1
     2    13    14   ar
     3    14    15   ar
     4    15    16   ar
     5    16     1    1
     6     1     2   ar
     7     2     3   ar
     8     3     4   ar
     9     4     5   ar
    10     5     6   ar
    11     5     7   ar
    12     7    18    1
    13    18    19    1
    14    19    20    2
    15    19    21   am
    16    21    22    1
    17    21    23    1
    18     7     8   ar
    19     8     9    2
    20     8    10   ar
    21    10    11    1
    22    16    17   ar
    23    17    13   ar
    24     6     1   ar
    25    10     4   ar
@<TRIPOS>MOLECULE
*****
 23 25 0 0 0
SMALL
GASTEIGER

@<TRIPOS>ATOM
      1 C         142.3697  139.8320  166.4220 C.ar    1  UNL1        0.0267
      2 C         143.5176  139.1646  165.7244 C.ar    1  UNL1        0.1011
      3 N         143.3483  138.6496  164.3258 N.ar    1  UNL1       -0.2251
      4 C         142.0309  138.8019  163.6249 C.ar    1  UNL1        0.1633
      5 C         140.8829  139.4692  164.3225 C.ar    1  UNL1        0.0986
      6 C         141.0523  139.9843  165.7211 C.ar    1  UNL1        0.0224
      7 N         139.7118  139.4763  163.3853 N.ar    1  UNL1       -0.2694
      8 C         140.1360  138.8133  162.1084 C.ar    1  UNL1        0.3331
      9 O         139.2776  138.6038  160.8962 O.2     1  UNL1       -0.2462
     10 N         141.5693  138.3965  162.2564 N.ar    1  UNL1       -0.2630
     11 C         142.3959  137.6971  161.2184 C.3     1  UNL1        0.1366
     12 C         143.1439  143.0667  170.5230 C.3     1  UNL1        0.0316
     13 C         142.8949  141.8339  169.7056 C.ar    1  UNL1       -0.0149
     14 C         142.7043  140.4452  170.2401 C.ar    1  UNL1        0.0312
     15 S         142.4844  139.5264  169.0751 S.2     1  UNL1       -0.0867
     16 C         142.5390  140.3470  167.8206 C.ar    1  UNL1        0.0307
     17 C         142.7927  141.7731  168.2104 C.ar    1  UNL1        0.0028
     18 C         138.3547  140.0462  163.6742 C.3     1  UNL1        0.1956
     19 C         137.9125  141.3100  162.9980 C.2     1  UNL1        0.2490
     20 O         137.2275  141.2473  161.6650 O.2     1  UNL1       -0.2728
     21 N         138.1554  142.6366  163.6547 N.am    1  UNL1       -0.2744
     22 C         137.7132  143.9004  162.9784 C.3     1  UNL1        0.1150
     23 C         138.8404  142.6994  164.9876 C.3     1  UNL1        0.1150
@<TRIPOS>BOND
     1    12    13    1
     2    13    14   ar
     3    14    15   ar
     4    15    16   ar
     5    16     1    1
     6     1     2   ar
     7     2     3   ar
     8     3     4   ar
     9     4     5   ar
    10     5     6   ar
    11     5     7   ar
    12     7    18    1
    13    18    19    1
    14    19    20    2
    15    19    21   am
    16    21    22    1
    17    21    23    1
    18     7     8   ar
    19     8     9    2
    20     8    10   ar
    21    10    11    1
    22    16    17   ar
    23    17    13   ar
    24     6     1   ar
    25    10     4   ar
@<TRIPOS>MOLECULE
*****
 23 25 0 0 0
SMALL
GASTEIGER

@<TRIPOS>ATOM
      1 C         139.6162  140.6433  166.4261 C.ar    1  UNL1        0.0267
      2 C         138.8021  139.3867  166.3354 C.ar    1  UNL1        0.1011
      3 N         138.4250  138.8326  164.9935 N.ar    1  UNL1       -0.2251
      4 C         138.8621  139.5351  163.7423 C.ar    1  UNL1        0.1633
      5 C         139.6762  140.7916  163.8330 C.ar    1  UNL1        0.0986
      6 C         140.0533  141.3457  165.1749 C.ar    1  UNL1        0.0224
      7 N         139.9607  141.2614  162.4371 N.ar    1  UNL1       -0.2694
      8 C         139.3224  140.2951  161.4837 C.ar    1  UNL1        0.3331
      9 O         139.3571  140.3808  159.9865 O.2     1  UNL1       -0.2462
     10 N         138.6434  139.2282  162.2903 N.ar    1  UNL1       -0.2630
     11 C         137.8799  138.0596  161.7414 C.3     1  UNL1        0.1366
     12 C         141.1566  143.9555  170.2390 C.3     1  UNL1        0.0316
     13 C         140.7013  142.7198  169.5206 C.ar    1  UNL1       -0.0149
     14 C         140.4458  141.3803  170.1456 C.ar    1  UNL1        0.0312
     15 S         140.0082  140.4394  169.0624 S.2     1  UNL1       -0.0867
     16 C         139.9933  141.1974  167.7681 C.ar    1  UNL1        0.0307
     17 C         140.4217  142.6068  168.0513 C.ar    1  UNL1        0.0028
     18 C         140.7457  142.4829  162.0608 C.3     1  UNL1        0.1956
     19 C         140.0315  143.7348  161.6453 C.2     1  UNL1        0.2490
     20 O         138.8989  143.6618  160.6646 O.2     1  UNL1       -0.2728
     21 N         140.4500  145.0598  162.2104 N.am    1  UNL1       -0.2744
     22 C         139.7358  146.3117  161.7949 C.3     1  UNL1        0.1150
     23 C         141.5826  145.1329  163.1911 C.3     1  UNL1        0.1150
@<TRIPOS>BOND
     1    12    13    1
     2    13    14   ar
     3    14    15   ar
     4    15    16   ar
     5    16     1    1
     6     1     2   ar
     7     2     3   ar
     8     3     4   ar
     9     4     5   ar
    10     5     6   ar
    11     5     7   ar
    12     7    18    1
    13    18    19    1
    14    19    20    2
    15    19    21   am
    16    21    22    1
    17    21    23    1
    18     7     8   ar
    19     8     9    2
    20     8    10   ar
    21    10    11    1
    22    16    17   ar
    23    17    13   ar
    24     6     1   ar
    25    10     4   ar
