@<TRIPOS>MOLECULE
*****
 38 40 0 0 0
SMALL
GASTEIGER

@<TRIPOS>ATOM
      1 C         142.5655  142.9629  158.8622 C.ar    1  UNL1        0.1331
      2 C         141.1123  143.0380  158.4984 C.ar    1  UNL1        0.0346
      3 C         140.1560  143.7844  159.3806 C.ar    1  UNL1        0.0102
      4 C         140.6529  144.4557  160.6266 C.ar    1  UNL1        0.0849
      5 C         142.1062  144.3806  160.9903 C.ar    1  UNL1        0.1379
      6 N         143.0625  143.6342  160.1081 N.ar    1  UNL1       -0.2158
      7 C         145.5302  141.5670  156.7818 C.3     1  UNL1        0.0933
      8 C         144.4569  140.5687  156.4629 C.3     1  UNL1        0.0428
      9 C         143.2158  140.9701  157.2034 C.3     1  UNL1        0.0940
     10 N         143.5219  142.2165  157.9799 N.pl3   1  UNL1       -0.2915
     11 C         144.9523  142.5853  157.7193 C.3     1  UNL1        0.1117
     12 C         147.2514  142.2011  154.9418 C.2     1  UNL1        0.2460
     13 O         146.1635  142.8694  154.1545 O.2     1  UNL1       -0.2701
     14 N         146.9347  141.5499  156.2555 N.am    1  UNL1       -0.3007
     15 H         147.6487  141.1112  156.7722 H       1  UNL1        0.1497
     16 C         149.7600  141.5959  155.2434 C.2     1  UNL1        0.0048
     17 C         148.6560  142.1840  154.4155 C.2     1  UNL1        0.0577
     18 C         139.6966  145.2021  161.5088 C.2     1  UNL1        0.2455
     19 N         138.4744  144.5144  162.0410 N.am    1  UNL1       -0.3252
     20 O         139.9624  146.6363  161.8588 O.2     1  UNL1       -0.2703
     21 H         138.2999  143.5731  161.8113 H       1  UNL1        0.1453
     22 H         137.8467  145.0042  162.6200 H       1  UNL1        0.1453
     23 N         142.6032  145.0519  162.2363 N.pl3   1  UNL1       -0.2978
     24 H         142.9101  145.9867  162.2028 H       1  UNL1        0.1536
     25 C         142.6324  144.2989  163.5332 C.ar    1  UNL1        0.0494
     26 C         143.9416  144.0261  164.2128 C.ar    1  UNL1        0.0148
     27 C         143.9708  143.2731  165.5098 C.ar    1  UNL1        0.0058
     28 C         142.6909  142.7929  166.1272 C.ar    1  UNL1        0.0534
     29 C         141.3818  143.0656  165.4476 C.ar    1  UNL1        0.0058
     30 C         141.3525  143.8186  164.1507 C.ar    1  UNL1        0.0148
     31 C         142.7201  142.0398  167.4242 C.2     1  UNL1        0.2458
     32 O         143.6484  142.4707  168.5208 O.2     1  UNL1       -0.2701
     33 N         141.8210  140.8560  167.6245 N.am    1  UNL1       -0.3040
     34 H         141.2117  140.5732  166.9047 H       1  UNL1        0.1496
     35 C         141.8502  140.1030  168.9214 C.3     1  UNL1        0.0572
     36 C         140.8540  141.0629  169.5012 C.3     1  UNL1        0.0196
     37 C         142.8464  139.1431  168.3417 C.3     1  UNL1        0.0196
     38 C         141.8793  139.3500  170.2183 C.3     1  UNL1        0.0196
@<TRIPOS>BOND
     1    16    17    2
     2    17    12    1
     3    12    13    2
     4    12    14   am
     5     7    14    1
     6     7     8    1
     7     8     9    1
     8     9    10    1
     9    10     1    1
    10     1     2   ar
    11     2     3   ar
    12     3     4   ar
    13     4    18    1
    14    18    19   am
    15    18    20    2
    16     4     5   ar
    17     5    23    1
    18    23    25    1
    19    25    26   ar
    20    26    27   ar
    21    27    28   ar
    22    28    31    1
    23    31    32    2
    24    31    33   am
    25    33    35    1
    26    35    36    1
    27    35    37    1
    28    35    38    1
    29    28    29   ar
    30    29    30   ar
    31     5     6   ar
    32    10    11    1
    33    11     7    1
    34     6     1   ar
    35    30    25   ar
    36    14    15    1
    37    19    21    1
    38    19    22    1
    39    23    24    1
    40    33    34    1
@<TRIPOS>MOLECULE
*****
 38 40 0 0 0
SMALL
GASTEIGER

@<TRIPOS>ATOM
      1 C         142.9780  134.8113  156.6406 C.ar    1  UNL1        0.1331
      2 C         141.7804  134.8828  155.7403 C.ar    1  UNL1        0.0346
      3 C         140.9722  136.1442  155.6661 C.ar    1  UNL1        0.0102
      4 C         141.3616  137.3341  156.4922 C.ar    1  UNL1        0.0849
      5 C         142.5592  137.2626  157.3925 C.ar    1  UNL1        0.1379
      6 N         143.3674  136.0012  157.4667 N.ar    1  UNL1       -0.2158
      7 C         144.8142  131.4294  156.1335 C.3     1  UNL1        0.0933
      8 C         145.2460  131.7880  157.5246 C.3     1  UNL1        0.0428
      9 C         144.6107  133.0984  157.8838 C.3     1  UNL1        0.0940
     10 N         143.7863  133.5498  156.7148 N.pl3   1  UNL1       -0.2915
     11 C         143.9121  132.5183  155.6331 C.3     1  UNL1        0.1117
     12 C         144.5741  128.8799  155.6954 C.2     1  UNL1        0.2460
     13 O         143.5338  128.7928  156.7725 O.2     1  UNL1       -0.2701
     14 N         145.2144  130.1982  155.3759 N.am    1  UNL1       -0.3007
     15 H         145.8972  130.2553  154.6690 H       1  UNL1        0.1497
     16 C         146.3744  127.1219  155.0483 C.2     1  UNL1        0.0048
     17 C         144.9743  127.6486  154.9378 C.2     1  UNL1        0.0577
     18 C         140.5533  138.5956  156.4180 C.2     1  UNL1        0.2455
     19 N         139.0596  138.5376  156.5417 N.am    1  UNL1       -0.3252
     20 O         141.2388  139.9150  156.2201 O.2     1  UNL1       -0.2703
     21 H         138.6097  137.6716  156.6716 H       1  UNL1        0.1453
     22 H         138.5291  139.3655  156.4930 H       1  UNL1        0.1453
     23 N         142.9486  138.4526  158.2186 N.pl3   1  UNL1       -0.2978
     24 H         143.3209  139.2534  157.7835 H       1  UNL1        0.1536
     25 C         142.7708  138.4224  159.7077 C.ar    1  UNL1        0.0494
     26 C         141.3926  138.3738  160.2976 C.ar    1  UNL1        0.0148
     27 C         141.2148  138.3436  161.7868 C.ar    1  UNL1        0.0058
     28 C         142.4152  138.3620  162.6860 C.ar    1  UNL1        0.0534
     29 C         143.7935  138.4106  162.0960 C.ar    1  UNL1        0.0058
     30 C         143.9713  138.4408  160.6069 C.ar    1  UNL1        0.0148
     31 C         142.2375  138.3319  164.1751 C.2     1  UNL1        0.2458
     32 O         141.2293  137.4080  164.7915 O.2     1  UNL1       -0.2701
     33 N         143.0680  139.2256  165.0478 N.am    1  UNL1       -0.3040
     34 H         143.7297  139.8319  164.6433 H       1  UNL1        0.1496
     35 C         142.8902  139.1954  166.5369 C.3     1  UNL1        0.0572
     36 C         143.8645  138.0588  166.6302 C.3     1  UNL1        0.0196
     37 C         141.9160  140.3321  166.4437 C.3     1  UNL1        0.0196
     38 C         142.7125  139.1653  168.0260 C.3     1  UNL1        0.0196
@<TRIPOS>BOND
     1    16    17    2
     2    17    12    1
     3    12    13    2
     4    12    14   am
     5     7    14    1
     6     7     8    1
     7     8     9    1
     8     9    10    1
     9    10     1    1
    10     1     2   ar
    11     2     3   ar
    12     3     4   ar
    13     4    18    1
    14    18    19   am
    15    18    20    2
    16     4     5   ar
    17     5    23    1
    18    23    25    1
    19    25    26   ar
    20    26    27   ar
    21    27    28   ar
    22    28    31    1
    23    31    32    2
    24    31    33   am
    25    33    35    1
    26    35    36    1
    27    35    37    1
    28    35    38    1
    29    28    29   ar
    30    29    30   ar
    31     5     6   ar
    32    10    11    1
    33    11     7    1
    34     6     1   ar
    35    30    25   ar
    36    14    15    1
    37    19    21    1
    38    19    22    1
    39    23    24    1
    40    33    34    1
@<TRIPOS>MOLECULE
*****
 38 40 0 0 0
SMALL
GASTEIGER

@<TRIPOS>ATOM
      1 C         143.0134  134.8013  156.7277 C.ar    1  UNL1        0.1331
      2 C         141.8937  134.9572  155.7418 C.ar    1  UNL1        0.0346
      3 C         141.1072  136.2335  155.6960 C.ar    1  UNL1        0.0102
      4 C         141.4402  137.3540  156.6360 C.ar    1  UNL1        0.0849
      5 C         142.5599  137.1981  157.6219 C.ar    1  UNL1        0.1379
      6 N         143.3464  135.9217  157.6678 N.ar    1  UNL1       -0.2158
      7 C         144.7811  131.3944  156.1499 C.3     1  UNL1        0.0933
      8 C         145.2399  131.7271  157.5388 C.3     1  UNL1        0.0428
      9 C         144.6335  133.0438  157.9242 C.3     1  UNL1        0.0940
     10 N         143.8000  133.5248  156.7736 N.pl3   1  UNL1       -0.2915
     11 C         143.8912  132.5055  155.6771 C.3     1  UNL1        0.1117
     12 C         144.5335  128.8437  155.7223 C.2     1  UNL1        0.2460
     13 O         143.5525  128.7494  156.8530 O.2     1  UNL1       -0.2701
     14 N         145.1479  130.1662  155.3707 N.am    1  UNL1       -0.3007
     15 H         145.7918  130.2281  154.6286 H       1  UNL1        0.1497
     16 C         146.1179  126.8244  155.3193 C.2     1  UNL1        0.0048
     17 C         144.9003  127.6155  154.9431 C.2     1  UNL1        0.0577
     18 C         140.6536  138.6304  156.5901 C.2     1  UNL1        0.2455
     19 N         139.1650  138.6009  156.7717 N.am    1  UNL1       -0.3252
     20 O         141.3557  139.9363  156.3626 O.2     1  UNL1       -0.2703
     21 H         138.7042  137.7438  156.9211 H       1  UNL1        0.1453
     22 H         138.6487  139.4386  156.7416 H       1  UNL1        0.1453
     23 N         142.8929  138.3185  158.5620 N.pl3   1  UNL1       -0.2978
     24 H         143.5012  139.0375  158.2750 H       1  UNL1        0.1536
     25 C         142.2993  138.3435  159.9392 C.ar    1  UNL1        0.0494
     26 C         143.1898  138.2388  161.1418 C.ar    1  UNL1        0.0148
     27 C         142.5960  138.2638  162.5191 C.ar    1  UNL1        0.0058
     28 C         141.1119  138.3936  162.6938 C.ar    1  UNL1        0.0534
     29 C         140.2215  138.4983  161.4913 C.ar    1  UNL1        0.0058
     30 C         140.8151  138.4733  160.1140 C.ar    1  UNL1        0.0148
     31 C         140.5182  138.4186  164.0712 C.2     1  UNL1        0.2458
     32 O         141.3950  138.2077  165.2698 O.2     1  UNL1       -0.2701
     33 N         139.0477  138.6545  164.2498 N.am    1  UNL1       -0.3040
     34 H         138.4722  138.7929  163.4631 H       1  UNL1        0.1496
     35 C         138.4540  138.6795  165.6270 C.3     1  UNL1        0.0572
     36 C         138.5200  140.1780  165.6282 C.3     1  UNL1        0.0196
     37 C         138.3880  137.1810  165.6258 C.3     1  UNL1        0.0196
     38 C         137.8603  138.7046  167.0042 C.3     1  UNL1        0.0196
@<TRIPOS>BOND
     1    16    17    2
     2    17    12    1
     3    12    13    2
     4    12    14   am
     5     7    14    1
     6     7     8    1
     7     8     9    1
     8     9    10    1
     9    10     1    1
    10     1     2   ar
    11     2     3   ar
    12     3     4   ar
    13     4    18    1
    14    18    19   am
    15    18    20    2
    16     4     5   ar
    17     5    23    1
    18    23    25    1
    19    25    26   ar
    20    26    27   ar
    21    27    28   ar
    22    28    31    1
    23    31    32    2
    24    31    33   am
    25    33    35    1
    26    35    36    1
    27    35    37    1
    28    35    38    1
    29    28    29   ar
    30    29    30   ar
    31     5     6   ar
    32    10    11    1
    33    11     7    1
    34     6     1   ar
    35    30    25   ar
    36    14    15    1
    37    19    21    1
    38    19    22    1
    39    23    24    1
    40    33    34    1
@<TRIPOS>MOLECULE
*****
 38 40 0 0 0
SMALL
GASTEIGER

@<TRIPOS>ATOM
      1 C         137.7972  140.9516  158.1784 C.ar    1  UNL1        0.1331
      2 C         138.5104  142.2310  157.8552 C.ar    1  UNL1        0.0346
      3 C         138.1198  143.0212  156.6415 C.ar    1  UNL1        0.0102
      4 C         137.0162  142.5322  155.7512 C.ar    1  UNL1        0.0849
      5 C         136.3030  141.2528  156.0745 C.ar    1  UNL1        0.1379
      6 N         136.6935  140.4625  157.2881 N.ar    1  UNL1       -0.2158
      7 C         138.3036  139.3404  161.6732 C.3     1  UNL1        0.0933
      8 C         139.2736  138.5496  160.8461 C.3     1  UNL1        0.0428
      9 C         139.2019  139.0569  159.4363 C.3     1  UNL1        0.0940
     10 N         138.1877  140.1612  159.3921 N.pl3   1  UNL1       -0.2915
     11 C         137.6326  140.3364  160.7745 C.3     1  UNL1        0.1117
     12 C         138.7651  140.0324  164.1345 C.2     1  UNL1        0.2460
     13 O         139.7349  141.0737  163.6599 O.2     1  UNL1       -0.2701
     14 N         138.0495  139.1658  163.1412 N.am    1  UNL1       -0.3007
     15 H         137.4130  138.4824  163.4526 H       1  UNL1        0.1497
     16 C         138.1959  138.4984  166.1526 C.2     1  UNL1        0.0048
     17 C         138.5109  139.8578  165.6025 C.2     1  UNL1        0.0577
     18 C         136.6257  143.3225  154.5375 C.2     1  UNL1        0.2455
     19 N         137.0479  144.7560  154.4082 N.am    1  UNL1       -0.3252
     20 O         135.8129  142.6793  153.4532 O.2     1  UNL1       -0.2703
     21 H         137.5814  145.1782  155.1199 H       1  UNL1        0.1453
     22 H         136.7916  145.2747  153.6117 H       1  UNL1        0.1453
     23 N         135.1993  140.7637  155.1842 N.pl3   1  UNL1       -0.2978
     24 H         135.3579  140.6535  154.2188 H       1  UNL1        0.1536
     25 C         133.8540  140.4427  155.7646 C.ar    1  UNL1        0.0494
     26 C         132.6679  141.2960  155.4257 C.ar    1  UNL1        0.0148
     27 C         131.3225  140.9749  156.0062 C.ar    1  UNL1        0.0058
     28 C         131.1633  139.8005  156.9256 C.ar    1  UNL1        0.0534
     29 C         132.3495  138.9471  157.2646 C.ar    1  UNL1        0.0058
     30 C         133.6948  139.2682  156.6841 C.ar    1  UNL1        0.0148
     31 C         129.8180  139.4793  157.5062 C.2     1  UNL1        0.2458
     32 O         128.5726  139.7904  156.7301 O.2     1  UNL1       -0.2701
     33 N         129.7180  138.8472  158.8628 N.am    1  UNL1       -0.3040
     34 H         130.5354  138.6430  159.3721 H       1  UNL1        0.1496
     35 C         128.3728  138.5260  159.4433 C.3     1  UNL1        0.0572
     36 C         128.2909  139.9089  160.0185 C.3     1  UNL1        0.0196
     37 C         128.4547  137.1432  158.8682 C.3     1  UNL1        0.0196
     38 C         127.0275  138.2049  160.0239 C.3     1  UNL1        0.0196
@<TRIPOS>BOND
     1    16    17    2
     2    17    12    1
     3    12    13    2
     4    12    14   am
     5     7    14    1
     6     7     8    1
     7     8     9    1
     8     9    10    1
     9    10     1    1
    10     1     2   ar
    11     2     3   ar
    12     3     4   ar
    13     4    18    1
    14    18    19   am
    15    18    20    2
    16     4     5   ar
    17     5    23    1
    18    23    25    1
    19    25    26   ar
    20    26    27   ar
    21    27    28   ar
    22    28    31    1
    23    31    32    2
    24    31    33   am
    25    33    35    1
    26    35    36    1
    27    35    37    1
    28    35    38    1
    29    28    29   ar
    30    29    30   ar
    31     5     6   ar
    32    10    11    1
    33    11     7    1
    34     6     1   ar
    35    30    25   ar
    36    14    15    1
    37    19    21    1
    38    19    22    1
    39    23    24    1
    40    33    34    1
@<TRIPOS>MOLECULE
*****
 38 40 0 0 0
SMALL
GASTEIGER

@<TRIPOS>ATOM
      1 C         141.0535  138.6766  158.2634 C.ar    1  UNL1        0.1331
      2 C         141.6336  140.0434  158.0503 C.ar    1  UNL1        0.0346
      3 C         141.1482  141.2006  158.8720 C.ar    1  UNL1        0.0102
      4 C         140.0826  140.9910  159.9067 C.ar    1  UNL1        0.0849
      5 C         139.5025  139.6243  160.1198 C.ar    1  UNL1        0.1379
      6 N         139.9879  138.4671  159.2981 N.ar    1  UNL1       -0.2158
      7 C         142.9099  135.7059  156.5919 C.3     1  UNL1        0.0933
      8 C         141.6617  135.7712  155.7625 C.3     1  UNL1        0.0428
      9 C         140.8144  136.8919  156.2878 C.3     1  UNL1        0.0940
     10 N         141.5389  137.5193  157.4417 N.pl3   1  UNL1       -0.2915
     11 C         142.8340  136.7863  157.6296 C.3     1  UNL1        0.1117
     12 C         143.8259  133.2780  156.7211 C.2     1  UNL1        0.2460
     13 O         142.4891  132.7995  157.2048 O.2     1  UNL1       -0.2701
     14 N         144.0363  134.7312  156.4146 N.am    1  UNL1       -0.3007
     15 H         144.9137  135.0454  156.0971 H       1  UNL1        0.1497
     16 C         144.7402  131.0484  155.7502 C.2     1  UNL1        0.0048
     17 C         144.9523  132.3034  156.5438 C.2     1  UNL1        0.0577
     18 C         139.5972  142.1483  160.7284 C.2     1  UNL1        0.2455
     19 N         140.4803  142.7392  161.7871 N.am    1  UNL1       -0.3252
     20 O         138.2286  142.7147  160.4913 O.2     1  UNL1       -0.2703
     21 H         141.3785  142.3674  161.9428 H       1  UNL1        0.1453
     22 H         140.1617  143.4987  162.3264 H       1  UNL1        0.1453
     23 N         138.4369  139.4148  161.1545 N.pl3   1  UNL1       -0.2978
     24 H         137.5203  139.1856  160.8778 H       1  UNL1        0.1536
     25 C         138.7679  139.5544  162.6108 C.ar    1  UNL1        0.0494
     26 C         137.8446  140.3091  163.5208 C.ar    1  UNL1        0.0148
     27 C         138.1756  140.4488  164.9772 C.ar    1  UNL1        0.0058
     28 C         139.4298  139.8337  165.5236 C.ar    1  UNL1        0.0534
     29 C         140.3531  139.0790  164.6136 C.ar    1  UNL1        0.0058
     30 C         140.0221  138.9393  163.1573 C.ar    1  UNL1        0.0148
     31 C         139.7608  139.9733  166.9800 C.2     1  UNL1        0.2458
     32 O         138.8536  139.3782  168.0157 O.2     1  UNL1       -0.2701
     33 N         140.9991  140.7081  167.4005 N.am    1  UNL1       -0.3040
     34 H         141.5945  141.0987  166.7207 H       1  UNL1        0.1496
     35 C         141.3301  140.8477  168.8568 C.3     1  UNL1        0.0572
     36 C         140.4812  142.0821  168.9314 C.3     1  UNL1        0.0196
     37 C         142.1790  139.6134  168.7822 C.3     1  UNL1        0.0196
     38 C         141.6611  140.9874  170.3131 C.3     1  UNL1        0.0196
@<TRIPOS>BOND
     1    16    17    2
     2    17    12    1
     3    12    13    2
     4    12    14   am
     5     7    14    1
     6     7     8    1
     7     8     9    1
     8     9    10    1
     9    10     1    1
    10     1     2   ar
    11     2     3   ar
    12     3     4   ar
    13     4    18    1
    14    18    19   am
    15    18    20    2
    16     4     5   ar
    17     5    23    1
    18    23    25    1
    19    25    26   ar
    20    26    27   ar
    21    27    28   ar
    22    28    31    1
    23    31    32    2
    24    31    33   am
    25    33    35    1
    26    35    36    1
    27    35    37    1
    28    35    38    1
    29    28    29   ar
    30    29    30   ar
    31     5     6   ar
    32    10    11    1
    33    11     7    1
    34     6     1   ar
    35    30    25   ar
    36    14    15    1
    37    19    21    1
    38    19    22    1
    39    23    24    1
    40    33    34    1
@<TRIPOS>MOLECULE
*****
 38 40 0 0 0
SMALL
GASTEIGER

@<TRIPOS>ATOM
      1 C         142.4913  138.4215  157.9825 C.ar    1  UNL1        0.1331
      2 C         142.0034  139.8118  157.7016 C.ar    1  UNL1        0.0346
      3 C         142.3365  140.9285  158.6460 C.ar    1  UNL1        0.0102
      4 C         143.1576  140.6550  159.8711 C.ar    1  UNL1        0.0849
      5 C         143.6455  139.2647  160.1520 C.ar    1  UNL1        0.1379
      6 N         143.3123  138.1479  159.2076 N.ar    1  UNL1       -0.2158
      7 C         142.3410  135.3157  155.6592 C.3     1  UNL1        0.0933
      8 C         140.9497  135.8564  155.5107 C.3     1  UNL1        0.0428
      9 C         140.8367  137.0856  156.3629 C.3     1  UNL1        0.0940
     10 N         142.1581  137.3046  157.0381 N.pl3   1  UNL1       -0.2915
     11 C         143.0878  136.2108  156.6032 C.3     1  UNL1        0.1117
     12 C         143.0452  132.8166  155.7525 C.2     1  UNL1        0.2460
     13 O         142.6529  132.7602  157.1992 O.2     1  UNL1       -0.2701
     14 N         142.8892  134.0944  154.9825 N.am    1  UNL1       -0.3007
     15 H         143.1467  134.1315  154.0330 H       1  UNL1        0.1497
     16 C         143.3420  131.3712  153.6142 C.2     1  UNL1        0.0048
     17 C         143.5934  131.5953  155.0759 C.2     1  UNL1        0.0577
     18 C         143.4908  141.7718  160.8155 C.2     1  UNL1        0.2455
     19 N         142.4065  142.4161  161.6274 N.am    1  UNL1       -0.3252
     20 O         144.9082  142.2444  160.9478 O.2     1  UNL1       -0.2703
     21 H         141.4762  142.1059  161.5405 H       1  UNL1        0.1453
     22 H         142.6252  143.1491  162.2472 H       1  UNL1        0.1453
     23 N         144.4666  138.9911  161.3771 N.pl3   1  UNL1       -0.2978
     24 H         145.3925  138.6690  161.2873 H       1  UNL1        0.1536
     25 C         143.8769  139.2083  162.7391 C.ar    1  UNL1        0.0494
     26 C         142.5896  138.5362  163.1149 C.ar    1  UNL1        0.0148
     27 C         141.9999  138.7534  164.4770 C.ar    1  UNL1        0.0058
     28 C         142.6974  139.6428  165.4631 C.ar    1  UNL1        0.0534
     29 C         143.9847  140.3149  165.0873 C.ar    1  UNL1        0.0058
     30 C         144.5744  140.0977  163.7253 C.ar    1  UNL1        0.0148
     31 C         142.1077  139.8600  166.8252 C.2     1  UNL1        0.2458
     32 O         142.6753  139.1392  168.0118 O.2     1  UNL1       -0.2701
     33 N         140.9505  140.7981  167.0004 N.am    1  UNL1       -0.3040
     34 H         140.5780  141.2712  166.2216 H       1  UNL1        0.1496
     35 C         140.3608  141.0154  168.3624 C.3     1  UNL1        0.0572
     36 C         139.3751  139.9130  168.1115 C.3     1  UNL1        0.0196
     37 C         141.3464  142.1178  168.6133 C.3     1  UNL1        0.0196
     38 C         139.7710  141.2327  169.7244 C.3     1  UNL1        0.0196
@<TRIPOS>BOND
     1    16    17    2
     2    17    12    1
     3    12    13    2
     4    12    14   am
     5     7    14    1
     6     7     8    1
     7     8     9    1
     8     9    10    1
     9    10     1    1
    10     1     2   ar
    11     2     3   ar
    12     3     4   ar
    13     4    18    1
    14    18    19   am
    15    18    20    2
    16     4     5   ar
    17     5    23    1
    18    23    25    1
    19    25    26   ar
    20    26    27   ar
    21    27    28   ar
    22    28    31    1
    23    31    32    2
    24    31    33   am
    25    33    35    1
    26    35    36    1
    27    35    37    1
    28    35    38    1
    29    28    29   ar
    30    29    30   ar
    31     5     6   ar
    32    10    11    1
    33    11     7    1
    34     6     1   ar
    35    30    25   ar
    36    14    15    1
    37    19    21    1
    38    19    22    1
    39    23    24    1
    40    33    34    1
@<TRIPOS>MOLECULE
*****
 38 40 0 0 0
SMALL
GASTEIGER

@<TRIPOS>ATOM
      1 C         141.3212  138.7763  159.5111 C.ar    1  UNL1        0.1331
      2 C         142.3838  139.8308  159.6047 C.ar    1  UNL1        0.0346
      3 C         143.3402  140.0348  158.4674 C.ar    1  UNL1        0.0102
      4 C         143.2340  139.1843  157.2364 C.ar    1  UNL1        0.0849
      5 C         142.1715  138.1297  157.1428 C.ar    1  UNL1        0.1379
      6 N         141.2151  137.9257  158.2801 N.ar    1  UNL1       -0.2158
      7 C         139.4630  138.2946  162.8846 C.3     1  UNL1        0.0933
      8 C         138.3227  138.2219  161.9127 C.3     1  UNL1        0.0428
      9 C         138.8801  138.3935  160.5307 C.3     1  UNL1        0.0940
     10 N         140.3647  138.5722  160.6485 N.pl3   1  UNL1       -0.2915
     11 C         140.7250  138.5111  162.1033 C.3     1  UNL1        0.1117
     12 C         138.5877  139.1917  165.1604 C.2     1  UNL1        0.2460
     13 O         137.9196  140.3335  164.4533 O.2     1  UNL1       -0.2701
     14 N         139.3593  138.1723  164.3760 N.am    1  UNL1       -0.3007
     15 H         139.7978  137.4229  164.8401 H       1  UNL1        0.1497
     16 C         137.3829  138.2544  167.2628 C.2     1  UNL1        0.0048
     17 C         138.4840  139.0694  166.6518 C.2     1  UNL1        0.0577
     18 C         144.1905  139.3883  156.0990 C.2     1  UNL1        0.2455
     19 N         144.2285  140.7028  155.3776 N.am    1  UNL1       -0.3252
     20 O         145.1090  138.2777  155.6831 O.2     1  UNL1       -0.2703
     21 H         143.6256  141.4317  155.6506 H       1  UNL1        0.1453
     22 H         144.8562  140.8367  154.6311 H       1  UNL1        0.1453
     23 N         142.0653  137.2791  155.9118 N.pl3   1  UNL1       -0.2978
     24 H         141.8708  137.6954  155.0411 H       1  UNL1        0.1536
     25 C         142.2555  135.7943  156.0075 C.ar    1  UNL1        0.0494
     26 C         143.3668  135.2329  156.8440 C.ar    1  UNL1        0.0148
     27 C         143.5569  133.7480  156.9396 C.ar    1  UNL1        0.0058
     28 C         142.6358  132.8247  156.1987 C.ar    1  UNL1        0.0534
     29 C         141.5245  133.3862  155.3622 C.ar    1  UNL1        0.0058
     30 C         141.3344  134.8709  155.2665 C.ar    1  UNL1        0.0148
     31 C         142.8259  131.3398  156.2943 C.2     1  UNL1        0.2458
     32 O         141.7630  130.4131  155.7831 O.2     1  UNL1       -0.2701
     33 N         144.0790  130.7817  156.9012 N.am    1  UNL1       -0.3040
     34 H         144.7767  131.3899  157.2367 H       1  UNL1        0.1496
     35 C         144.2692  129.2969  156.9968 C.3     1  UNL1        0.0572
     36 C         144.8725  129.2857  155.6236 C.3     1  UNL1        0.0196
     37 C         143.6659  129.3081  158.3701 C.3     1  UNL1        0.0196
     38 C         144.4594  127.8121  157.0925 C.3     1  UNL1        0.0196
@<TRIPOS>BOND
     1    16    17    2
     2    17    12    1
     3    12    13    2
     4    12    14   am
     5     7    14    1
     6     7     8    1
     7     8     9    1
     8     9    10    1
     9    10     1    1
    10     1     2   ar
    11     2     3   ar
    12     3     4   ar
    13     4    18    1
    14    18    19   am
    15    18    20    2
    16     4     5   ar
    17     5    23    1
    18    23    25    1
    19    25    26   ar
    20    26    27   ar
    21    27    28   ar
    22    28    31    1
    23    31    32    2
    24    31    33   am
    25    33    35    1
    26    35    36    1
    27    35    37    1
    28    35    38    1
    29    28    29   ar
    30    29    30   ar
    31     5     6   ar
    32    10    11    1
    33    11     7    1
    34     6     1   ar
    35    30    25   ar
    36    14    15    1
    37    19    21    1
    38    19    22    1
    39    23    24    1
    40    33    34    1
@<TRIPOS>MOLECULE
*****
 38 40 0 0 0
SMALL
GASTEIGER

@<TRIPOS>ATOM
      1 C         139.8857  141.8657  158.6955 C.ar    1  UNL1        0.1331
      2 C         140.4693  140.5155  158.4018 C.ar    1  UNL1        0.0346
      3 C         140.2027  139.3658  159.3274 C.ar    1  UNL1        0.0102
      4 C         139.3526  139.5662  160.5469 C.ar    1  UNL1        0.0849
      5 C         138.7690  140.9164  160.8406 C.ar    1  UNL1        0.1379
      6 N         139.0355  142.0661  159.9150 N.ar    1  UNL1       -0.2158
      7 C         140.2604  145.2565  156.8441 C.3     1  UNL1        0.0933
      8 C         140.8645  144.3133  155.8464 C.3     1  UNL1        0.0428
      9 C         140.7976  142.9283  156.4185 C.3     1  UNL1        0.0940
     10 N         140.1522  143.0156  157.7698 N.pl3   1  UNL1       -0.2915
     11 C         139.8202  144.4545  158.0328 C.3     1  UNL1        0.1117
     12 C         139.0420  147.3015  155.8031 C.2     1  UNL1        0.2460
     13 O         138.1024  146.3771  155.0871 O.2     1  UNL1       -0.2701
     14 N         140.1210  146.7412  156.6817 N.am    1  UNL1       -0.3007
     15 H         140.7376  147.3479  157.1516 H       1  UNL1        0.1497
     16 C         139.5644  149.4798  154.4870 C.2     1  UNL1        0.0048
     17 C         138.9025  148.7861  155.6406 C.2     1  UNL1        0.0577
     18 C         139.0860  138.4163  161.4726 C.2     1  UNL1        0.2455
     19 N         140.2296  137.7007  162.1283 N.am    1  UNL1       -0.3252
     20 O         137.6758  137.9822  161.7426 O.2     1  UNL1       -0.2703
     21 H         141.1552  137.9856  161.9511 H       1  UNL1        0.1453
     22 H         140.0547  136.9460  162.7358 H       1  UNL1        0.1453
     23 N         137.9188  141.1168  162.0601 N.pl3   1  UNL1       -0.2978
     24 H         136.9410  141.1897  161.9719 H       1  UNL1        0.1536
     25 C         138.5584  141.2062  163.4139 C.ar    1  UNL1        0.0494
     26 C         139.6592  142.1951  163.6595 C.ar    1  UNL1        0.0148
     27 C         140.2988  142.2845  165.0134 C.ar    1  UNL1        0.0058
     28 C         139.8377  141.3849  166.1216 C.ar    1  UNL1        0.0534
     29 C         138.7370  140.3959  165.8759 C.ar    1  UNL1        0.0058
     30 C         138.0974  140.3065  164.5221 C.ar    1  UNL1        0.0148
     31 C         140.4774  141.4742  167.4755 C.2     1  UNL1        0.2458
     32 O         140.4033  140.3099  168.4183 O.2     1  UNL1       -0.2701
     33 N         141.1911  142.7279  167.8865 N.am    1  UNL1       -0.3040
     34 H         141.2397  143.4920  167.2677 H       1  UNL1        0.1496
     35 C         141.8307  142.8172  169.2403 C.3     1  UNL1        0.0572
     36 C         140.5787  143.4327  169.7912 C.3     1  UNL1        0.0196
     37 C         143.0827  142.2017  168.6894 C.3     1  UNL1        0.0196
     38 C         142.4703  142.9066  170.5941 C.3     1  UNL1        0.0196
@<TRIPOS>BOND
     1    16    17    2
     2    17    12    1
     3    12    13    2
     4    12    14   am
     5     7    14    1
     6     7     8    1
     7     8     9    1
     8     9    10    1
     9    10     1    1
    10     1     2   ar
    11     2     3   ar
    12     3     4   ar
    13     4    18    1
    14    18    19   am
    15    18    20    2
    16     4     5   ar
    17     5    23    1
    18    23    25    1
    19    25    26   ar
    20    26    27   ar
    21    27    28   ar
    22    28    31    1
    23    31    32    2
    24    31    33   am
    25    33    35    1
    26    35    36    1
    27    35    37    1
    28    35    38    1
    29    28    29   ar
    30    29    30   ar
    31     5     6   ar
    32    10    11    1
    33    11     7    1
    34     6     1   ar
    35    30    25   ar
    36    14    15    1
    37    19    21    1
    38    19    22    1
    39    23    24    1
    40    33    34    1
@<TRIPOS>MOLECULE
*****
 38 40 0 0 0
SMALL
GASTEIGER

@<TRIPOS>ATOM
      1 C         140.3302  141.7804  158.6438 C.ar    1  UNL1        0.1331
      2 C         141.2913  142.9081  158.4107 C.ar    1  UNL1        0.0346
      3 C         141.2491  144.1231  159.2892 C.ar    1  UNL1        0.0102
      4 C         140.2458  144.2104  160.4009 C.ar    1  UNL1        0.0849
      5 C         139.2847  143.0826  160.6340 C.ar    1  UNL1        0.1379
      6 N         139.3269  141.8676  159.7554 N.ar    1  UNL1       -0.2158
      7 C         140.9393  138.3806  156.8728 C.3     1  UNL1        0.0933
      8 C         139.9351  139.0104  155.9536 C.3     1  UNL1        0.0428
      9 C         139.5848  140.3606  156.5051 C.3     1  UNL1        0.0940
     10 N         140.3724  140.5652  157.7652 N.pl3   1  UNL1       -0.2915
     11 C         141.2096  139.3415  157.9924 C.3     1  UNL1        0.1117
     12 C         143.0313  136.9092  156.4156 C.2     1  UNL1        0.2460
     13 O         143.8745  138.1443  156.2993 O.2     1  UNL1       -0.2701
     14 N         141.5637  137.0274  156.7023 N.am    1  UNL1       -0.3007
     15 H         141.0102  136.2167  156.7786 H       1  UNL1        0.1497
     16 C         143.2114  134.6606  155.1267 C.2     1  UNL1        0.0048
     17 C         143.6556  135.5560  156.2451 C.2     1  UNL1        0.0577
     18 C         140.2037  145.4255  161.2794 C.2     1  UNL1        0.2455
     19 N         141.3417  145.7163  162.2124 N.am    1  UNL1       -0.3252
     20 O         139.0235  146.3497  161.2250 O.2     1  UNL1       -0.2703
     21 H         142.1162  145.1097  162.2481 H       1  UNL1        0.1453
     22 H         141.3140  146.5138  162.7890 H       1  UNL1        0.1453
     23 N         138.2814  143.1699  161.7456 N.pl3   1  UNL1       -0.2978
     24 H         137.4447  143.6721  161.6152 H       1  UNL1        0.1536
     25 C         138.5529  142.4920  163.0558 C.ar    1  UNL1        0.0494
     26 C         137.9403  141.1546  163.3494 C.ar    1  UNL1        0.0148
     27 C         138.2118  140.4767  164.6597 C.ar    1  UNL1        0.0058
     28 C         139.0958  141.1362  165.6763 C.ar    1  UNL1        0.0534
     29 C         139.7084  142.4735  165.3827 C.ar    1  UNL1        0.0058
     30 C         139.4369  143.1515  164.0725 C.ar    1  UNL1        0.0148
     31 C         139.3673  140.4583  166.9866 C.2     1  UNL1        0.2458
     32 O         138.6718  139.1729  167.3244 O.2     1  UNL1       -0.2701
     33 N         140.3343  141.0658  167.9592 N.am    1  UNL1       -0.3040
     34 H         140.7908  141.9094  167.7375 H       1  UNL1        0.1496
     35 C         140.6058  140.3879  169.2694 C.3     1  UNL1        0.0572
     36 C         141.8239  139.7395  168.6815 C.3     1  UNL1        0.0196
     37 C         139.3877  141.0364  169.8573 C.3     1  UNL1        0.0196
     38 C         140.8773  139.7101  170.5796 C.3     1  UNL1        0.0196
@<TRIPOS>BOND
     1    16    17    2
     2    17    12    1
     3    12    13    2
     4    12    14   am
     5     7    14    1
     6     7     8    1
     7     8     9    1
     8     9    10    1
     9    10     1    1
    10     1     2   ar
    11     2     3   ar
    12     3     4   ar
    13     4    18    1
    14    18    19   am
    15    18    20    2
    16     4     5   ar
    17     5    23    1
    18    23    25    1
    19    25    26   ar
    20    26    27   ar
    21    27    28   ar
    22    28    31    1
    23    31    32    2
    24    31    33   am
    25    33    35    1
    26    35    36    1
    27    35    37    1
    28    35    38    1
    29    28    29   ar
    30    29    30   ar
    31     5     6   ar
    32    10    11    1
    33    11     7    1
    34     6     1   ar
    35    30    25   ar
    36    14    15    1
    37    19    21    1
    38    19    22    1
    39    23    24    1
    40    33    34    1
