@<TRIPOS>MOLECULE
*****
 22 25 0 0 0
SMALL
GASTEIGER

@<TRIPOS>ATOM
      1 O         144.1242  140.3085  164.8066 O.2     1  UNL1       -0.2666
      2 C         142.7908  140.9074  165.1434 C.2     1  UNL1        0.2834
      3 C         142.2112  141.9841  164.2746 C.ar    1  UNL1        0.1985
      4 N         142.7187  142.6526  163.0315 N.ar    1  UNL1       -0.2227
      5 C         141.6991  143.6646  162.6000 C.ar    1  UNL1        0.0988
      6 C         141.6597  144.6197  161.4441 C.ar    1  UNL1        0.0206
      7 C         140.4825  145.5319  161.2647 C.ar    1  UNL1        0.0016
      8 C         139.3447  145.4889  162.2413 C.ar    1  UNL1        0.0054
      9 C         139.3842  144.5337  163.3972 C.ar    1  UNL1        0.0887
     10 C         140.5613  143.6216  163.5765 C.ar    1  UNL1        0.0829
     11 N         140.8778  142.5830  164.6115 N.ar    1  UNL1       -0.3061
     12 C         140.1241  142.1052  165.8172 C.3     1  UNL1        0.1291
     13 C         140.7038  141.0286  166.6860 C.3     1  UNL1        0.1183
     14 N         142.0371  140.4297  166.3491 N.am    1  UNL1       -0.2716
     15 C         138.2464  144.4907  164.3737 C.3     1  UNL1        0.4200
     16 F         137.1086  144.4477  165.3503 F       1  UNL1       -0.1658
     17 F         139.0544  145.2927  165.3505 F       1  UNL1       -0.1658
     18 F         137.4384  143.6888  163.3970 F       1  UNL1       -0.1658
     19 C         142.6168  139.3530  167.2179 C.3     1  UNL1        0.0938
     20 C         142.5854  139.4958  168.7107 C.3     1  UNL1        0.0199
     21 C         142.5031  138.8748  170.0737 C.3     1  UNL1        0.0018
     22 C         142.6133  140.3642  169.9335 C.3     1  UNL1        0.0018
@<TRIPOS>BOND
     1     1     2    2
     2     2     3    1
     3     3     4   ar
     4     4     5   ar
     5     5     6   ar
     6     6     7   ar
     7     7     8   ar
     8     8     9   ar
     9     9    15    1
    10    15    16    1
    11    15    17    1
    12    15    18    1
    13     9    10   ar
    14    10    11   ar
    15    11    12    1
    16    12    13    1
    17    13    14    1
    18    14    19    1
    19    19    20    1
    20    20    21    1
    21    21    22    1
    22    14     2   am
    23    22    20    1
    24    11     3   ar
    25    10     5   ar
@<TRIPOS>MOLECULE
*****
 22 25 0 0 0
SMALL
GASTEIGER

@<TRIPOS>ATOM
      1 O         138.6494  139.0494  167.0570 O.2     1  UNL1       -0.2666
      2 C         140.0320  139.5691  166.7957 C.2     1  UNL1        0.2834
      3 C         140.7322  139.2267  165.5141 C.ar    1  UNL1        0.1985
      4 N         140.3148  138.4047  164.3309 N.ar    1  UNL1       -0.2227
      5 C         141.4394  138.4163  163.3384 C.ar    1  UNL1        0.0988
      6 C         141.5941  137.7790  161.9894 C.ar    1  UNL1        0.0206
      7 C         142.8613  137.9709  161.2102 C.ar    1  UNL1        0.0016
      8 C         143.9739  138.8001  161.7800 C.ar    1  UNL1        0.0054
      9 C         143.8191  139.4374  163.1290 C.ar    1  UNL1        0.0887
     10 C         142.5519  139.2455  163.9082 C.ar    1  UNL1        0.0829
     11 N         142.1148  139.7463  165.2529 N.ar    1  UNL1       -0.3061
     12 C         142.7972  140.6084  166.2732 C.3     1  UNL1        0.1291
     13 C         142.0970  140.9509  167.5548 C.3     1  UNL1        0.1183
     14 N         140.7144  140.4312  167.8160 N.am    1  UNL1       -0.2716
     15 C         144.9317  140.2666  163.6988 C.3     1  UNL1        0.4200
     16 F         146.0442  141.0959  164.2686 F       1  UNL1       -0.1658
     17 F         144.5035  141.4256  162.8482 F       1  UNL1       -0.1658
     18 F         145.3598  139.1077  164.5494 F       1  UNL1       -0.1658
     19 C         140.0142  140.7737  169.0976 C.3     1  UNL1        0.0938
     20 C         140.0739  142.1731  169.6342 C.3     1  UNL1        0.0199
     21 C         139.7610  143.1642  170.7158 C.3     1  UNL1        0.0018
     22 C         140.4903  143.6061  169.4818 C.3     1  UNL1        0.0018
@<TRIPOS>BOND
     1     1     2    2
     2     2     3    1
     3     3     4   ar
     4     4     5   ar
     5     5     6   ar
     6     6     7   ar
     7     7     8   ar
     8     8     9   ar
     9     9    15    1
    10    15    16    1
    11    15    17    1
    12    15    18    1
    13     9    10   ar
    14    10    11   ar
    15    11    12    1
    16    12    13    1
    17    13    14    1
    18    14    19    1
    19    19    20    1
    20    20    21    1
    21    21    22    1
    22    14     2   am
    23    22    20    1
    24    11     3   ar
    25    10     5   ar
@<TRIPOS>MOLECULE
*****
 22 25 0 0 0
SMALL
GASTEIGER

@<TRIPOS>ATOM
      1 O         138.1519  143.3515  161.2252 O.2     1  UNL1       -0.2666
      2 C         139.0617  143.5026  162.4081 C.2     1  UNL1        0.2834
      3 C         138.9924  142.5185  163.5381 C.ar    1  UNL1        0.1985
      4 N         138.1356  141.3082  163.7640 N.ar    1  UNL1       -0.2227
      5 C         138.5159  140.7112  165.0865 C.ar    1  UNL1        0.0988
      6 C         138.0090  139.5103  165.8285 C.ar    1  UNL1        0.0206
      7 C         138.5940  139.1507  167.1621 C.ar    1  UNL1        0.0016
      8 C         139.6858  139.9921  167.7537 C.ar    1  UNL1        0.0054
      9 C         140.1927  141.1931  167.0116 C.ar    1  UNL1        0.0887
     10 C         139.6077  141.5527  165.6781 C.ar    1  UNL1        0.0829
     11 N         139.9022  142.6696  164.7211 N.ar    1  UNL1       -0.3061
     12 C         140.8813  143.8047  164.7741 C.3     1  UNL1        0.1291
     13 C         140.9506  144.7888  163.6441 C.3     1  UNL1        0.1183
     14 N         140.0408  144.6377  162.4611 N.am    1  UNL1       -0.2716
     15 C         141.2845  142.0345  167.6032 C.3     1  UNL1        0.4200
     16 F         142.3763  142.8759  168.1947 F       1  UNL1       -0.1658
     17 F         142.3111  141.0895  167.0525 F       1  UNL1       -0.1658
     18 F         140.2579  142.9795  168.1538 F       1  UNL1       -0.1658
     19 C         140.1100  145.6218  161.3311 C.3     1  UNL1        0.0938
     20 C         140.8495  145.2699  160.0744 C.3     1  UNL1        0.0199
     21 C         141.7102  144.3190  159.2966 C.3     1  UNL1        0.0018
     22 C         141.2696  145.6113  158.6755 C.3     1  UNL1        0.0018
@<TRIPOS>BOND
     1     1     2    2
     2     2     3    1
     3     3     4   ar
     4     4     5   ar
     5     5     6   ar
     6     6     7   ar
     7     7     8   ar
     8     8     9   ar
     9     9    15    1
    10    15    16    1
    11    15    17    1
    12    15    18    1
    13     9    10   ar
    14    10    11   ar
    15    11    12    1
    16    12    13    1
    17    13    14    1
    18    14    19    1
    19    19    20    1
    20    20    21    1
    21    21    22    1
    22    14     2   am
    23    22    20    1
    24    11     3   ar
    25    10     5   ar
@<TRIPOS>MOLECULE
*****
 22 25 0 0 0
SMALL
GASTEIGER

@<TRIPOS>ATOM
      1 O         142.9547  139.9327  168.2578 O.2     1  UNL1       -0.2666
      2 C         141.7729  139.7526  167.3518 C.2     1  UNL1        0.2834
      3 C         141.9785  139.3456  165.9227 C.ar    1  UNL1        0.1985
      4 N         143.2184  139.0532  165.1308 N.ar    1  UNL1       -0.2227
      5 C         142.8028  138.6924  163.7354 C.ar    1  UNL1        0.0988
      6 C         143.5940  138.3096  162.5199 C.ar    1  UNL1        0.0206
      7 C         142.8884  137.9962  161.2339 C.ar    1  UNL1        0.0016
      8 C         141.3916  138.0656  161.1634 C.ar    1  UNL1        0.0054
      9 C         140.6005  138.4484  162.3789 C.ar    1  UNL1        0.0887
     10 C         141.3061  138.7618  163.6649 C.ar    1  UNL1        0.0829
     11 N         140.7967  139.1655  165.0167 N.ar    1  UNL1       -0.3061
     12 C         139.4093  139.3925  165.5398 C.3     1  UNL1        0.1291
     13 C         139.2037  139.7995  166.9688 C.3     1  UNL1        0.1183
     14 N         140.3855  139.9795  167.8748 N.am    1  UNL1       -0.2716
     15 C         139.1038  138.5179  162.3084 C.3     1  UNL1        0.4200
     16 F         137.6071  138.5873  162.2379 F       1  UNL1       -0.1658
     17 F         139.1981  139.8422  161.6102 F       1  UNL1       -0.1658
     18 F         139.0095  137.1936  163.0065 F       1  UNL1       -0.1658
     19 C         140.1799  140.3865  169.3038 C.3     1  UNL1        0.0938
     20 C         140.1420  141.8403  169.6716 C.3     1  UNL1        0.0199
     21 C         140.4420  143.2722  169.3407 C.3     1  UNL1        0.0018
     22 C         139.7762  142.9262  170.6395 C.3     1  UNL1        0.0018
@<TRIPOS>BOND
     1     1     2    2
     2     2     3    1
     3     3     4   ar
     4     4     5   ar
     5     5     6   ar
     6     6     7   ar
     7     7     8   ar
     8     8     9   ar
     9     9    15    1
    10    15    16    1
    11    15    17    1
    12    15    18    1
    13     9    10   ar
    14    10    11   ar
    15    11    12    1
    16    12    13    1
    17    13    14    1
    18    14    19    1
    19    19    20    1
    20    20    21    1
    21    21    22    1
    22    14     2   am
    23    22    20    1
    24    11     3   ar
    25    10     5   ar
@<TRIPOS>MOLECULE
*****
 22 25 0 0 0
SMALL
GASTEIGER

@<TRIPOS>ATOM
      1 O         142.7225  139.2755  167.0966 O.2     1  UNL1       -0.2666
      2 C         141.9048  140.2919  166.3562 C.2     1  UNL1        0.2834
      3 C         140.9542  139.8518  165.2826 C.ar    1  UNL1        0.1985
      4 N         140.6119  138.4964  164.7388 N.ar    1  UNL1       -0.2227
      5 C         139.5826  138.6751  163.6624 C.ar    1  UNL1        0.0988
      6 C         138.8750  137.6924  162.7772 C.ar    1  UNL1        0.0206
      7 C         137.8736  138.1756  161.7705 C.ar    1  UNL1        0.0016
      8 C         137.5797  139.6415  161.6490 C.ar    1  UNL1        0.0054
      9 C         138.2873  140.6242  162.5342 C.ar    1  UNL1        0.0887
     10 C         139.2887  140.1410  163.5409 C.ar    1  UNL1        0.0829
     11 N         140.1364  140.8682  164.5422 N.ar    1  UNL1       -0.3061
     12 C         140.2693  142.3247  164.8755 C.3     1  UNL1        0.1291
     13 C         141.2199  142.7647  165.9491 C.3     1  UNL1        0.1183
     14 N         142.0377  141.7483  166.6895 N.am    1  UNL1       -0.2716
     15 C         137.9934  142.0901  162.4126 C.3     1  UNL1        0.4200
     16 F         137.6995  143.5560  162.2911 F       1  UNL1       -0.1658
     17 F         136.9482  141.9692  163.4817 F       1  UNL1       -0.1658
     18 F         139.0386  142.2110  161.3435 F       1  UNL1       -0.1658
     19 C         142.9883  142.1883  167.7631 C.3     1  UNL1        0.0938
     20 C         142.4594  142.6786  169.0784 C.3     1  UNL1        0.0199
     21 C         142.6584  142.9430  170.5414 C.3     1  UNL1        0.0018
     22 C         141.3441  143.2635  169.8934 C.3     1  UNL1        0.0018
@<TRIPOS>BOND
     1     1     2    2
     2     2     3    1
     3     3     4   ar
     4     4     5   ar
     5     5     6   ar
     6     6     7   ar
     7     7     8   ar
     8     8     9   ar
     9     9    15    1
    10    15    16    1
    11    15    17    1
    12    15    18    1
    13     9    10   ar
    14    10    11   ar
    15    11    12    1
    16    12    13    1
    17    13    14    1
    18    14    19    1
    19    19    20    1
    20    20    21    1
    21    21    22    1
    22    14     2   am
    23    22    20    1
    24    11     3   ar
    25    10     5   ar
@<TRIPOS>MOLECULE
*****
 22 25 0 0 0
SMALL
GASTEIGER

@<TRIPOS>ATOM
      1 O         139.7699  143.8257  166.5186 O.2     1  UNL1       -0.2666
      2 C         140.2106  142.4176  166.2485 C.2     1  UNL1        0.2834
      3 C         139.6395  141.6632  165.0845 C.ar    1  UNL1        0.1985
      4 N         138.6342  142.0431  164.0381 N.ar    1  UNL1       -0.2227
      5 C         138.4535  140.8698  163.1212 C.ar    1  UNL1        0.0988
      6 C         137.5907  140.6648  161.9114 C.ar    1  UNL1        0.0206
      7 C         137.6216  139.3548  161.1815 C.ar    1  UNL1        0.0016
      8 C         138.5153  138.2498  161.6613 C.ar    1  UNL1        0.0054
      9 C         139.3781  138.4547  162.8710 C.ar    1  UNL1        0.0887
     10 C         139.3472  139.7647  163.6010 C.ar    1  UNL1        0.0829
     11 N         140.0801  140.2551  164.8144 N.ar    1  UNL1       -0.3061
     12 C         141.0919  139.6013  165.7082 C.3     1  UNL1        0.1291
     13 C         141.6630  140.3557  166.8722 C.3     1  UNL1        0.1183
     14 N         141.2223  141.7638  167.1423 N.am    1  UNL1       -0.2716
     15 C         140.2717  137.3496  163.3508 C.3     1  UNL1        0.4200
     16 F         141.1654  136.2446  163.8306 F       1  UNL1       -0.1658
     17 F         139.3721  137.1349  164.5318 F       1  UNL1       -0.1658
     18 F         141.1713  137.5643  162.1699 F       1  UNL1       -0.1658
     19 C         141.7934  142.5182  168.3063 C.3     1  UNL1        0.0938
     20 C         140.8816  143.0769  169.3582 C.3     1  UNL1        0.0199
     21 C         140.2897  144.2564  170.0711 C.3     1  UNL1        0.0018
     22 C         139.8940  142.8649  170.4671 C.3     1  UNL1        0.0018
@<TRIPOS>BOND
     1     1     2    2
     2     2     3    1
     3     3     4   ar
     4     4     5   ar
     5     5     6   ar
     6     6     7   ar
     7     7     8   ar
     8     8     9   ar
     9     9    15    1
    10    15    16    1
    11    15    17    1
    12    15    18    1
    13     9    10   ar
    14    10    11   ar
    15    11    12    1
    16    12    13    1
    17    13    14    1
    18    14    19    1
    19    19    20    1
    20    20    21    1
    21    21    22    1
    22    14     2   am
    23    22    20    1
    24    11     3   ar
    25    10     5   ar
@<TRIPOS>MOLECULE
*****
 22 25 0 0 0
SMALL
GASTEIGER

@<TRIPOS>ATOM
      1 O         140.9855  140.2195  163.2786 O.2     1  UNL1       -0.2666
      2 C         140.7442  141.2102  164.3788 C.2     1  UNL1        0.2834
      3 C         141.1605  140.8875  165.7833 C.ar    1  UNL1        0.1985
      4 N         141.8247  139.6831  166.3817 N.ar    1  UNL1       -0.2227
      5 C         141.9939  139.9294  167.8516 C.ar    1  UNL1        0.0988
      6 C         142.5852  139.0936  168.9478 C.ar    1  UNL1        0.0206
      7 C         142.6169  139.6144  170.3541 C.ar    1  UNL1        0.0016
      8 C         142.0573  140.9711  170.6642 C.ar    1  UNL1        0.0054
      9 C         141.4659  141.8070  169.5680 C.ar    1  UNL1        0.0887
     10 C         141.4342  141.2861  168.1617 C.ar    1  UNL1        0.0829
     11 N         140.9191  141.8782  166.8834 N.ar    1  UNL1       -0.3061
     12 C         140.2616  143.1916  166.5790 C.3     1  UNL1        0.1291
     13 C         139.8453  143.5142  165.1745 C.3     1  UNL1        0.1183
     14 N         140.0866  142.5235  164.0744 N.am    1  UNL1       -0.2716
     15 C         140.9062  143.1637  169.8781 C.3     1  UNL1        0.4200
     16 F         140.3466  144.5203  170.1882 F       1  UNL1       -0.1658
     17 F         139.5146  142.6203  169.7435 F       1  UNL1       -0.1658
     18 F         142.2979  143.7070  170.0126 F       1  UNL1       -0.1658
     19 C         139.6703  142.8462  162.6699 C.3     1  UNL1        0.0938
     20 C         139.9032  144.2204  162.1156 C.3     1  UNL1        0.0199
     21 C         140.5990  145.1295  161.1463 C.3     1  UNL1        0.0018
     22 C         139.6107  145.6916  162.1247 C.3     1  UNL1        0.0018
@<TRIPOS>BOND
     1     1     2    2
     2     2     3    1
     3     3     4   ar
     4     4     5   ar
     5     5     6   ar
     6     6     7   ar
     7     7     8   ar
     8     8     9   ar
     9     9    15    1
    10    15    16    1
    11    15    17    1
    12    15    18    1
    13     9    10   ar
    14    10    11   ar
    15    11    12    1
    16    12    13    1
    17    13    14    1
    18    14    19    1
    19    19    20    1
    20    20    21    1
    21    21    22    1
    22    14     2   am
    23    22    20    1
    24    11     3   ar
    25    10     5   ar
@<TRIPOS>MOLECULE
*****
 22 25 0 0 0
SMALL
GASTEIGER

@<TRIPOS>ATOM
      1 O         142.1351  138.3010  165.3654 O.2     1  UNL1       -0.2666
      2 C         141.5607  139.6323  165.7498 C.2     1  UNL1        0.2834
      3 C         140.7492  140.4133  164.7590 C.ar    1  UNL1        0.1985
      4 N         140.3511  140.1287  163.3411 N.ar    1  UNL1       -0.2227
      5 C         139.5305  141.2841  162.8492 C.ar    1  UNL1        0.0988
      6 C         138.8685  141.5558  161.5309 C.ar    1  UNL1        0.0206
      7 C         138.0976  142.8261  161.3266 C.ar    1  UNL1        0.0016
      8 C         137.9887  143.8248  162.4405 C.ar    1  UNL1        0.0054
      9 C         138.6507  143.5531  163.7588 C.ar    1  UNL1        0.0887
     10 C         139.4216  142.2828  163.9631 C.ar    1  UNL1        0.0829
     11 N         140.1748  141.7446  165.1434 N.ar    1  UNL1       -0.3061
     12 C         140.4118  142.2948  166.5186 C.3     1  UNL1        0.1291
     13 C         141.2232  141.5137  167.5093 C.3     1  UNL1        0.1183
     14 N         141.7977  140.1825  167.1249 N.am    1  UNL1       -0.2716
     15 C         138.5418  144.5518  164.8727 C.3     1  UNL1        0.4200
     16 F         138.4328  145.5505  165.9866 F       1  UNL1       -0.1658
     17 F         137.1318  144.1099  165.1310 F       1  UNL1       -0.1658
     18 F         139.9517  144.9937  164.6144 F       1  UNL1       -0.1658
     19 C         142.6091  139.4014  168.1157 C.3     1  UNL1        0.0938
     20 C         142.5454  139.7452  169.5743 C.3     1  UNL1        0.0199
     21 C         141.7686  140.2322  170.7615 C.3     1  UNL1        0.0018
     22 C         143.2119  139.8535  170.9138 C.3     1  UNL1        0.0018
@<TRIPOS>BOND
     1     1     2    2
     2     2     3    1
     3     3     4   ar
     4     4     5   ar
     5     5     6   ar
     6     6     7   ar
     7     7     8   ar
     8     8     9   ar
     9     9    15    1
    10    15    16    1
    11    15    17    1
    12    15    18    1
    13     9    10   ar
    14    10    11   ar
    15    11    12    1
    16    12    13    1
    17    13    14    1
    18    14    19    1
    19    19    20    1
    20    20    21    1
    21    21    22    1
    22    14     2   am
    23    22    20    1
    24    11     3   ar
    25    10     5   ar
@<TRIPOS>MOLECULE
*****
 22 25 0 0 0
SMALL
GASTEIGER

@<TRIPOS>ATOM
      1 O         140.1013  138.3973  165.2826 O.2     1  UNL1       -0.2666
      2 C         140.6855  139.7688  165.4491 C.2     1  UNL1        0.2834
      3 C         141.5756  140.3391  164.3849 C.ar    1  UNL1        0.1985
      4 N         142.0519  139.7886  163.0734 N.ar    1  UNL1       -0.2227
      5 C         142.9304  140.8198  162.4293 C.ar    1  UNL1        0.0988
      6 C         143.6782  140.8306  161.1291 C.ar    1  UNL1        0.0206
      7 C         144.4928  142.0293  160.7424 C.ar    1  UNL1        0.0016
      8 C         144.5595  143.2172  161.6559 C.ar    1  UNL1        0.0054
      9 C         143.8116  143.2064  162.9561 C.ar    1  UNL1        0.0887
     10 C         142.9971  142.0077  163.3428 C.ar    1  UNL1        0.0829
     11 N         142.1598  141.7106  164.5514 N.ar    1  UNL1       -0.3061
     12 C         141.8538  142.5118  165.7820 C.3     1  UNL1        0.1291
     13 C         140.9637  141.9415  166.8462 C.3     1  UNL1        0.1183
     14 N         140.3795  140.5700  166.6797 N.am    1  UNL1       -0.2716
     15 C         143.8783  144.3943  163.8695 C.3     1  UNL1        0.4200
     16 F         143.9450  145.5822  164.7830 F       1  UNL1       -0.1658
     17 F         144.8103  143.6454  164.7754 F       1  UNL1       -0.1658
     18 F         142.9464  145.1432  162.9637 F       1  UNL1       -0.1658
     19 C         139.4894  139.9996  167.7438 C.3     1  UNL1        0.0938
     20 C         139.6534  140.4329  169.1705 C.3     1  UNL1        0.0199
     21 C         140.0711  140.1326  170.5795 C.3     1  UNL1        0.0018
     22 C         139.5198  141.4838  170.2325 C.3     1  UNL1        0.0018
@<TRIPOS>BOND
     1     1     2    2
     2     2     3    1
     3     3     4   ar
     4     4     5   ar
     5     5     6   ar
     6     6     7   ar
     7     7     8   ar
     8     8     9   ar
     9     9    15    1
    10    15    16    1
    11    15    17    1
    12    15    18    1
    13     9    10   ar
    14    10    11   ar
    15    11    12    1
    16    12    13    1
    17    13    14    1
    18    14    19    1
    19    19    20    1
    20    20    21    1
    21    21    22    1
    22    14     2   am
    23    22    20    1
    24    11     3   ar
    25    10     5   ar
