@<TRIPOS>MOLECULE
*****
 23 25 0 0 0
SMALL
GASTEIGER

@<TRIPOS>ATOM
      1 N         138.0934  140.7724  163.3807 N.ar    1  UNL1       -0.3165
      2 C         137.8961  139.5826  162.4888 C.ar    1  UNL1        0.0779
      3 C         138.7997  138.4869  162.9712 C.ar    1  UNL1        0.0392
      4 C         139.5554  138.9994  164.1613 C.ar    1  UNL1        0.0985
      5 N         140.5846  138.3624  165.0472 N.ar    1  UNL1       -0.2423
      6 C         141.1773  139.1379  166.1861 C.ar    1  UNL1        0.0989
      7 C         140.7407  140.5505  166.4392 C.ar    1  UNL1        0.0206
      8 C         139.7115  141.1875  165.5533 C.ar    1  UNL1        0.0203
      9 C         139.1189  140.4120  164.4144 C.ar    1  UNL1        0.0782
     10 C         141.3334  141.3260  167.5782 C.ar    1  UNL1        0.0025
     11 C         142.7112  140.9980  168.0724 C.ar    1  UNL1        0.0024
     12 C         143.3039  141.7735  169.2114 C.ar    1  UNL1        0.0305
     13 C         142.5188  142.8771  169.8562 C.ar    1  UNL1        0.1506
     14 F         143.1114  143.6526  170.9952 F       1  UNL1       -0.2033
     15 C         141.1410  143.2050  169.3621 C.ar    1  UNL1        0.0850
     16 CL        140.3559  144.3086  170.0069 Cl      1  UNL1       -0.0799
     17 C         140.5483  142.4295  168.2231 C.ar    1  UNL1        0.0137
     18 C         137.3888  142.0911  163.2601 C.3     1  UNL1        0.1920
     19 C         139.1764  145.5227  162.3777 C.3     1  UNL1        0.1150
     20 N         138.5559  144.4106  163.1703 N.am    1  UNL1       -0.2744
     21 C         138.4820  144.5058  164.6654 C.3     1  UNL1        0.1150
     22 C         138.0094  143.2034  162.4676 C.2     1  UNL1        0.2488
     23 O         138.0833  143.1082  160.9724 O.2     1  UNL1       -0.2728
@<TRIPOS>BOND
     1    19    20    1
     2    20    21    1
     3    20    22   am
     4    22    23    2
     5    22    18    1
     6    18     1    1
     7     1     2   ar
     8     2     3   ar
     9     3     4   ar
    10     4     5   ar
    11     5     6   ar
    12     6     7   ar
    13     7    10    1
    14    10    11   ar
    15    11    12   ar
    16    12    13   ar
    17    13    14    1
    18    13    15   ar
    19    15    16    1
    20    15    17   ar
    21     7     8   ar
    22     8     9   ar
    23     9     1   ar
    24     9     4   ar
    25    17    10   ar
@<TRIPOS>MOLECULE
*****
 23 25 0 0 0
SMALL
GASTEIGER

@<TRIPOS>ATOM
      1 N         137.8769  141.4461  162.6044 N.ar    1  UNL1       -0.3165
      2 C         137.5817  140.4852  161.4911 C.ar    1  UNL1        0.0779
      3 C         137.9239  139.1047  161.9675 C.ar    1  UNL1        0.0392
      4 C         138.4306  139.2124  163.3752 C.ar    1  UNL1        0.0985
      5 N         138.9147  138.1797  164.3494 N.ar    1  UNL1       -0.2423
      6 C         139.3698  138.5941  165.7173 C.ar    1  UNL1        0.0989
      7 C         139.3407  140.0412  166.1110 C.ar    1  UNL1        0.0206
      8 C         138.8567  141.0739  165.1367 C.ar    1  UNL1        0.0203
      9 C         138.4016  140.6595  163.7689 C.ar    1  UNL1        0.0782
     10 C         139.7958  140.4557  167.4789 C.ar    1  UNL1        0.0025
     11 C         139.0416  139.9964  168.6914 C.ar    1  UNL1        0.0024
     12 C         139.4967  140.4108  170.0594 C.ar    1  UNL1        0.0305
     13 C         140.7060  141.2845  170.2147 C.ar    1  UNL1        0.1506
     14 F         141.1611  141.6989  171.5826 F       1  UNL1       -0.2033
     15 C         141.4603  141.7437  169.0022 C.ar    1  UNL1        0.0850
     16 CL        142.6696  142.6174  169.1576 Cl      1  UNL1       -0.0799
     17 C         141.0052  141.3293  167.6343 C.ar    1  UNL1        0.0137
     18 C         137.6818  142.9328  162.5610 C.3     1  UNL1        0.1920
     19 C         140.6025  145.6179  162.4625 C.3     1  UNL1        0.1150
     20 N         139.5080  144.7326  162.9804 N.am    1  UNL1       -0.2744
     21 C         139.1450  144.7618  164.4355 C.3     1  UNL1        0.1150
     22 C         138.7764  143.8181  162.0431 C.2     1  UNL1        0.2488
     23 O         139.1394  143.7889  160.5880 O.2     1  UNL1       -0.2728
@<TRIPOS>BOND
     1    19    20    1
     2    20    21    1
     3    20    22   am
     4    22    23    2
     5    22    18    1
     6    18     1    1
     7     1     2   ar
     8     2     3   ar
     9     3     4   ar
    10     4     5   ar
    11     5     6   ar
    12     6     7   ar
    13     7    10    1
    14    10    11   ar
    15    11    12   ar
    16    12    13   ar
    17    13    14    1
    18    13    15   ar
    19    15    16    1
    20    15    17   ar
    21     7     8   ar
    22     8     9   ar
    23     9     1   ar
    24     9     4   ar
    25    17    10   ar
@<TRIPOS>MOLECULE
*****
 23 25 0 0 0
SMALL
GASTEIGER

@<TRIPOS>ATOM
      1 N         138.1936  140.0674  162.1575 N.ar    1  UNL1       -0.3165
      2 C         138.2360  139.2108  160.9269 C.ar    1  UNL1        0.0779
      3 C         139.1857  138.0784  161.1830 C.ar    1  UNL1        0.0392
      4 C         139.7303  138.2352  162.5719 C.ar    1  UNL1        0.0985
      5 N         140.7053  137.4174  163.3659 N.ar    1  UNL1       -0.2423
      6 C         141.0671  137.8289  164.7622 C.ar    1  UNL1        0.0989
      7 C         140.4539  139.0582  165.3645 C.ar    1  UNL1        0.0206
      8 C         139.4789  139.8760  164.5705 C.ar    1  UNL1        0.0203
      9 C         139.1171  139.4645  163.1742 C.ar    1  UNL1        0.0782
     10 C         140.8157  139.4696  166.7609 C.ar    1  UNL1        0.0025
     11 C         142.2477  139.4340  167.2060 C.ar    1  UNL1        0.0024
     12 C         142.6095  139.8455  168.6024 C.ar    1  UNL1        0.0305
     13 C         141.5393  140.2926  169.5536 C.ar    1  UNL1        0.1506
     14 F         141.9011  140.7041  170.9499 F       1  UNL1       -0.2033
     15 C         140.1073  140.3282  169.1084 C.ar    1  UNL1        0.0850
     16 CL        139.0371  140.7752  170.0596 Cl      1  UNL1       -0.0799
     17 C         139.7455  139.9167  167.7121 C.ar    1  UNL1        0.0137
     18 C         137.3718  141.3091  162.3396 C.3     1  UNL1        0.1920
     19 C         138.8249  144.9809  162.7357 C.3     1  UNL1        0.1150
     20 N         138.2456  143.6409  163.0807 N.am    1  UNL1       -0.2744
     21 C         137.9609  143.2928  164.5117 C.3     1  UNL1        0.1150
     22 C         137.9511  142.6491  161.9947 C.2     1  UNL1        0.2488
     23 O         138.2358  142.9972  160.5637 O.2     1  UNL1       -0.2728
@<TRIPOS>BOND
     1    19    20    1
     2    20    21    1
     3    20    22   am
     4    22    23    2
     5    22    18    1
     6    18     1    1
     7     1     2   ar
     8     2     3   ar
     9     3     4   ar
    10     4     5   ar
    11     5     6   ar
    12     6     7   ar
    13     7    10    1
    14    10    11   ar
    15    11    12   ar
    16    12    13   ar
    17    13    14    1
    18    13    15   ar
    19    15    16    1
    20    15    17   ar
    21     7     8   ar
    22     8     9   ar
    23     9     1   ar
    24     9     4   ar
    25    17    10   ar
@<TRIPOS>MOLECULE
*****
 23 25 0 0 0
SMALL
GASTEIGER

@<TRIPOS>ATOM
      1 N         141.6216  138.3223  163.2774 N.ar    1  UNL1       -0.3165
      2 C         140.5369  137.5630  162.5725 C.ar    1  UNL1        0.0779
      3 C         139.2733  137.7158  163.3662 C.ar    1  UNL1        0.0392
      4 C         139.5770  138.5695  164.5616 C.ar    1  UNL1        0.0985
      5 N         138.7196  139.0540  165.6929 N.ar    1  UNL1       -0.2423
      6 C         139.3135  139.9133  166.7694 C.ar    1  UNL1        0.0989
      7 C         140.7648  140.2882  166.7144 C.ar    1  UNL1        0.0206
      8 C         141.6223  139.8037  165.5831 C.ar    1  UNL1        0.0203
      9 C         141.0284  138.9444  164.5067 C.ar    1  UNL1        0.0782
     10 C         141.3587  141.1476  167.7909 C.ar    1  UNL1        0.0025
     11 C         142.7395  140.8617  168.3025 C.ar    1  UNL1        0.0024
     12 C         143.3334  141.7211  169.3790 C.ar    1  UNL1        0.0305
     13 C         142.5464  142.8664  169.9439 C.ar    1  UNL1        0.1506
     14 F         143.1403  143.7258  171.0204 F       1  UNL1       -0.2033
     15 C         141.1656  143.1523  169.4323 C.ar    1  UNL1        0.0850
     16 CL        140.3787  144.2975  169.9972 Cl      1  UNL1       -0.0799
     17 C         140.5718  142.2929  168.3558 C.ar    1  UNL1        0.0137
     18 C         143.0489  138.4391  162.8312 C.3     1  UNL1        0.1920
     19 C         145.1545  141.7873  162.5050 C.3     1  UNL1        0.1150
     20 N         144.6396  140.4830  163.0376 N.am    1  UNL1       -0.2744
     21 C         145.2002  139.9183  164.3091 C.3     1  UNL1        0.1150
     22 C         143.5639  139.7435  162.2986 C.2     1  UNL1        0.2488
     23 O         143.0033  140.3082  161.0271 O.2     1  UNL1       -0.2728
@<TRIPOS>BOND
     1    19    20    1
     2    20    21    1
     3    20    22   am
     4    22    23    2
     5    22    18    1
     6    18     1    1
     7     1     2   ar
     8     2     3   ar
     9     3     4   ar
    10     4     5   ar
    11     5     6   ar
    12     6     7   ar
    13     7    10    1
    14    10    11   ar
    15    11    12   ar
    16    12    13   ar
    17    13    14    1
    18    13    15   ar
    19    15    16    1
    20    15    17   ar
    21     7     8   ar
    22     8     9   ar
    23     9     1   ar
    24     9     4   ar
    25    17    10   ar
@<TRIPOS>MOLECULE
*****
 23 25 0 0 0
SMALL
GASTEIGER

@<TRIPOS>ATOM
      1 N         144.2857  140.3709  162.4688 N.ar    1  UNL1       -0.3165
      2 C         144.3049  139.5701  161.2006 C.ar    1  UNL1        0.0779
      3 C         143.3660  138.4125  161.3692 C.ar    1  UNL1        0.0392
      4 C         142.7665  138.4979  162.7415 C.ar    1  UNL1        0.0985
      5 N         141.7765  137.6299  163.4601 N.ar    1  UNL1       -0.2423
      6 C         141.3549  137.9722  164.8583 C.ar    1  UNL1        0.0989
      7 C         141.9234  139.1825  165.5380 C.ar    1  UNL1        0.0206
      8 C         142.9134  140.0505  164.8194 C.ar    1  UNL1        0.0203
      9 C         143.3349  139.7082  163.4212 C.ar    1  UNL1        0.0782
     10 C         141.5018  139.5248  166.9362 C.ar    1  UNL1        0.0025
     11 C         140.0722  139.8764  167.2237 C.ar    1  UNL1        0.0024
     12 C         139.6506  140.2187  168.6220 C.ar    1  UNL1        0.0305
     13 C         140.6586  140.2094  169.7328 C.ar    1  UNL1        0.1506
     14 F         140.2371  140.5517  171.1310 F       1  UNL1       -0.2033
     15 C         142.0882  139.8579  169.4452 C.ar    1  UNL1        0.0850
     16 CL        143.0963  139.8486  170.5560 Cl      1  UNL1       -0.0799
     17 C         142.5098  139.5156  168.0470 C.ar    1  UNL1        0.0137
     18 C         145.0782  141.6158  162.7376 C.3     1  UNL1        0.1920
     19 C         143.5173  145.1535  163.6310 C.3     1  UNL1        0.1150
     20 N         144.1595  143.8071  163.7884 N.am    1  UNL1       -0.2744
     21 C         144.5251  143.3056  165.1540 C.3     1  UNL1        0.1150
     22 C         144.4360  142.9623  162.5802 C.2     1  UNL1        0.2488
     23 O         144.0703  143.4638  161.2147 O.2     1  UNL1       -0.2728
@<TRIPOS>BOND
     1    19    20    1
     2    20    21    1
     3    20    22   am
     4    22    23    2
     5    22    18    1
     6    18     1    1
     7     1     2   ar
     8     2     3   ar
     9     3     4   ar
    10     4     5   ar
    11     5     6   ar
    12     6     7   ar
    13     7    10    1
    14    10    11   ar
    15    11    12   ar
    16    12    13   ar
    17    13    14    1
    18    13    15   ar
    19    15    16    1
    20    15    17   ar
    21     7     8   ar
    22     8     9   ar
    23     9     1   ar
    24     9     4   ar
    25    17    10   ar
@<TRIPOS>MOLECULE
*****
 23 25 0 0 0
SMALL
GASTEIGER

@<TRIPOS>ATOM
      1 N         141.4805  138.2351  163.5164 N.ar    1  UNL1       -0.3165
      2 C         140.3777  137.4650  162.8526 C.ar    1  UNL1        0.0779
      3 C         139.1338  137.6363  163.6731 C.ar    1  UNL1        0.0392
      4 C         139.4678  138.5122  164.8441 C.ar    1  UNL1        0.0985
      5 N         138.6386  139.0206  165.9859 N.ar    1  UNL1       -0.2423
      6 C         139.2598  139.8992  167.0310 C.ar    1  UNL1        0.0989
      7 C         140.7102  140.2693  166.9342 C.ar    1  UNL1        0.0206
      8 C         141.5394  139.7608  165.7923 C.ar    1  UNL1        0.0203
      9 C         140.9182  138.8823  164.7472 C.ar    1  UNL1        0.0782
     10 C         141.3315  141.1478  167.9794 C.ar    1  UNL1        0.0025
     11 C         142.7062  140.8420  168.4957 C.ar    1  UNL1        0.0024
     12 C         143.3274  141.7206  169.5409 C.ar    1  UNL1        0.0305
     13 C         142.5739  142.9050  170.0696 C.ar    1  UNL1        0.1506
     14 F         143.1950  143.7835  171.1147 F       1  UNL1       -0.2033
     15 C         141.1991  143.2107  169.5531 C.ar    1  UNL1        0.0850
     16 CL        140.4456  144.3951  170.0819 Cl      1  UNL1       -0.0799
     17 C         140.5780  142.3322  168.5081 C.ar    1  UNL1        0.0137
     18 C         142.8970  138.3396  163.0342 C.3     1  UNL1        0.1920
     19 C         143.6913  140.0782  159.5562 C.3     1  UNL1        0.1150
     20 N         143.3180  139.0340  160.5662 N.am    1  UNL1       -0.2744
     21 C         142.9925  137.6398  160.1185 C.3     1  UNL1        0.1150
     22 C         143.2703  139.3839  162.0240 C.2     1  UNL1        0.2488
     23 O         143.5958  140.7780  162.4717 O.2     1  UNL1       -0.2728
@<TRIPOS>BOND
     1    19    20    1
     2    20    21    1
     3    20    22   am
     4    22    23    2
     5    22    18    1
     6    18     1    1
     7     1     2   ar
     8     2     3   ar
     9     3     4   ar
    10     4     5   ar
    11     5     6   ar
    12     6     7   ar
    13     7    10    1
    14    10    11   ar
    15    11    12   ar
    16    12    13   ar
    17    13    14    1
    18    13    15   ar
    19    15    16    1
    20    15    17   ar
    21     7     8   ar
    22     8     9   ar
    23     9     1   ar
    24     9     4   ar
    25    17    10   ar
@<TRIPOS>MOLECULE
*****
 23 25 0 0 0
SMALL
GASTEIGER

@<TRIPOS>ATOM
      1 N         141.5249  144.0837  161.0902 N.ar    1  UNL1       -0.3165
      2 C         141.1099  145.4626  160.6704 C.ar    1  UNL1        0.0779
      3 C         139.7301  145.7135  161.2025 C.ar    1  UNL1        0.0392
      4 C         139.2924  144.4897  161.9512 C.ar    1  UNL1        0.0985
      5 N         138.0270  144.1624  162.6872 N.ar    1  UNL1       -0.2423
      6 C         137.8709  142.8277  163.3538 C.ar    1  UNL1        0.0989
      7 C         138.9802  141.8204  163.2843 C.ar    1  UNL1        0.0206
      8 C         140.2456  142.1477  162.5483 C.ar    1  UNL1        0.0203
      9 C         140.4016  143.4823  161.8818 C.ar    1  UNL1        0.0782
     10 C         138.8241  140.4857  163.9509 C.ar    1  UNL1        0.0025
     11 C         139.1316  139.2283  163.1931 C.ar    1  UNL1        0.0024
     12 C         138.9755  137.8936  163.8597 C.ar    1  UNL1        0.0305
     13 C         138.5118  137.8164  165.2841 C.ar    1  UNL1        0.1506
     14 F         138.3557  136.4818  165.9507 F       1  UNL1       -0.2033
     15 C         138.2042  139.0739  166.0420 C.ar    1  UNL1        0.0850
     16 CL        137.7405  138.9967  167.4664 Cl      1  UNL1       -0.0799
     17 C         138.3604  140.4085  165.3754 C.ar    1  UNL1        0.0137
     18 C         142.8335  143.4221  160.7739 C.3     1  UNL1        0.1920
     19 C         145.5372  141.9074  163.2529 C.3     1  UNL1        0.1150
     20 N         144.4693  141.9970  162.2035 N.am    1  UNL1       -0.2744
     21 C         143.9690  140.7514  161.5342 C.3     1  UNL1        0.1150
     22 C         143.9015  143.3324  161.8234 C.2     1  UNL1        0.2488
     23 O         144.4018  144.5781  162.4928 O.2     1  UNL1       -0.2728
@<TRIPOS>BOND
     1    19    20    1
     2    20    21    1
     3    20    22   am
     4    22    23    2
     5    22    18    1
     6    18     1    1
     7     1     2   ar
     8     2     3   ar
     9     3     4   ar
    10     4     5   ar
    11     5     6   ar
    12     6     7   ar
    13     7    10    1
    14    10    11   ar
    15    11    12   ar
    16    12    13   ar
    17    13    14    1
    18    13    15   ar
    19    15    16    1
    20    15    17   ar
    21     7     8   ar
    22     8     9   ar
    23     9     1   ar
    24     9     4   ar
    25    17    10   ar
@<TRIPOS>MOLECULE
*****
 23 25 0 0 0
SMALL
GASTEIGER

@<TRIPOS>ATOM
      1 N         141.4564  144.1616  161.7853 N.ar    1  UNL1       -0.3165
      2 C         140.7367  145.2634  161.0656 C.ar    1  UNL1        0.0779
      3 C         139.6497  145.7720  161.9654 C.ar    1  UNL1        0.0392
      4 C         139.6976  144.9846  163.2412 C.ar    1  UNL1        0.0985
      5 N         138.8686  145.0453  164.4898 N.ar    1  UNL1       -0.2423
      6 C         139.1564  144.1107  165.6272 C.ar    1  UNL1        0.0989
      7 C         140.2730  143.1153  165.5159 C.ar    1  UNL1        0.0206
      8 C         141.1019  143.0546  164.2672 C.ar    1  UNL1        0.0203
      9 C         140.8142  143.9892  163.1299 C.ar    1  UNL1        0.0782
     10 C         140.5607  142.1807  166.6533 C.ar    1  UNL1        0.0025
     11 C         140.9132  140.7491  166.3770 C.ar    1  UNL1        0.0024
     12 C         141.2009  139.8145  167.5144 C.ar    1  UNL1        0.0305
     13 C         141.1362  140.3114  168.9282 C.ar    1  UNL1        0.1506
     14 F         141.4239  139.3769  170.0656 F       1  UNL1       -0.2033
     15 C         140.7837  141.7431  169.2046 C.ar    1  UNL1        0.0850
     16 CL        140.7190  142.2400  170.6184 Cl      1  UNL1       -0.0799
     17 C         140.4960  142.6776  168.0671 C.ar    1  UNL1        0.0137
     18 C         142.6150  143.3708  161.2538 C.3     1  UNL1        0.1920
     19 C         145.6707  141.8351  163.2673 C.3     1  UNL1        0.1150
     20 N         144.4017  141.9320  162.4735 N.am    1  UNL1       -0.2744
     21 C         143.6502  140.6870  162.1056 C.3     1  UNL1        0.1150
     22 C         143.8841  143.2739  162.0476 C.2     1  UNL1        0.2488
     23 O         144.6355  144.5188  162.4156 O.2     1  UNL1       -0.2728
@<TRIPOS>BOND
     1    19    20    1
     2    20    21    1
     3    20    22   am
     4    22    23    2
     5    22    18    1
     6    18     1    1
     7     1     2   ar
     8     2     3   ar
     9     3     4   ar
    10     4     5   ar
    11     5     6   ar
    12     6     7   ar
    13     7    10    1
    14    10    11   ar
    15    11    12   ar
    16    12    13   ar
    17    13    14    1
    18    13    15   ar
    19    15    16    1
    20    15    17   ar
    21     7     8   ar
    22     8     9   ar
    23     9     1   ar
    24     9     4   ar
    25    17    10   ar
@<TRIPOS>MOLECULE
*****
 23 25 0 0 0
SMALL
GASTEIGER

@<TRIPOS>ATOM
      1 N         137.9778  141.0266  162.0503 N.ar    1  UNL1       -0.3165
      2 C         137.6325  139.9127  161.1069 C.ar    1  UNL1        0.0779
      3 C         137.8772  138.6131  161.8149 C.ar    1  UNL1        0.0392
      4 C         138.3738  138.9238  163.1958 C.ar    1  UNL1        0.0985
      5 N         138.7774  138.0412  164.3395 N.ar    1  UNL1       -0.2423
      6 C         139.2431  138.6503  165.6287 C.ar    1  UNL1        0.0989
      7 C         139.3053  140.1419  165.7742 C.ar    1  UNL1        0.0206
      8 C         138.9017  141.0245  164.6305 C.ar    1  UNL1        0.0203
      9 C         138.4360  140.4154  163.3413 C.ar    1  UNL1        0.0782
     10 C         139.7711  140.7509  167.0635 C.ar    1  UNL1        0.0025
     11 C         140.3935  142.1157  167.0666 C.ar    1  UNL1        0.0024
     12 C         140.8592  142.7247  168.3559 C.ar    1  UNL1        0.0305
     13 C         140.7026  141.9689  169.6421 C.ar    1  UNL1        0.1506
     14 F         141.1683  142.5779  170.9313 F       1  UNL1       -0.2033
     15 C         140.0801  140.6041  169.6390 C.ar    1  UNL1        0.0850
     16 CL        139.9234  139.8483  170.9251 Cl      1  UNL1       -0.0799
     17 C         139.6144  139.9951  168.3497 C.ar    1  UNL1        0.0137
     18 C         137.8819  142.4940  161.7547 C.3     1  UNL1        0.1920
     19 C         141.0211  144.3253  160.1602 C.3     1  UNL1        0.1150
     20 N         139.7733  143.5025  160.2863 N.am    1  UNL1       -0.2744
     21 C         139.1690  142.8652  159.0703 C.3     1  UNL1        0.1150
     22 C         139.1298  143.3169  161.6285 C.2     1  UNL1        0.2488
     23 O         139.7341  143.9541  162.8445 O.2     1  UNL1       -0.2728
@<TRIPOS>BOND
     1    19    20    1
     2    20    21    1
     3    20    22   am
     4    22    23    2
     5    22    18    1
     6    18     1    1
     7     1     2   ar
     8     2     3   ar
     9     3     4   ar
    10     4     5   ar
    11     5     6   ar
    12     6     7   ar
    13     7    10    1
    14    10    11   ar
    15    11    12   ar
    16    12    13   ar
    17    13    14    1
    18    13    15   ar
    19    15    16    1
    20    15    17   ar
    21     7     8   ar
    22     8     9   ar
    23     9     1   ar
    24     9     4   ar
    25    17    10   ar
