@<TRIPOS>MOLECULE
*****
 37 42 0 0 0
SMALL
GASTEIGER

@<TRIPOS>ATOM
      1 C         141.4568  140.7646  166.3925 C.ar    1  UNL1        0.2352
      2 N         140.8737  141.5311  165.2425 N.ar    1  UNL1       -0.1977
      3 C         140.1541  140.5591  164.3550 C.ar    1  UNL1        0.1428
      4 N         140.2925  139.1921  164.9566 N.ar    1  UNL1       -0.2348
      5 N         141.0976  139.3190  166.2158 N.ar    1  UNL1       -0.1330
      6 C         139.7521  137.8879  164.4493 C.3     1  UNL1        0.1289
      7 C         138.9398  137.6289  163.2152 C.3     1  UNL1        0.0264
      8 C         138.4673  138.6099  162.1836 C.3     1  UNL1        0.0028
      9 C         138.6904  140.0923  162.1312 C.3     1  UNL1        0.0121
     10 C         139.4411  140.9598  163.0976 C.3     1  UNL1        0.0828
     11 C         139.4845  142.4211  162.7623 C.ar    1  UNL1        0.0145
     12 C         138.4323  143.3454  163.2993 C.ar    1  UNL1        0.0008
     13 C         138.4756  144.8069  162.9640 C.ar    1  UNL1        0.0318
     14 C         139.5713  145.3440  162.0915 C.ar    1  UNL1        0.1696
     15 F         139.6147  146.8053  161.7562 F       1  UNL1       -0.2017
     16 C         140.6235  144.4197  161.5545 C.ar    1  UNL1        0.1943
     17 F         141.7192  144.9567  160.6821 F       1  UNL1       -0.1994
     18 C         140.5801  142.9582  161.8898 C.ar    1  UNL1        0.1660
     19 F         141.6324  142.0339  161.3527 F       1  UNL1       -0.2020
     20 N         142.2584  141.3424  167.5210 N.pl3   1  UNL1       -0.3033
     21 H         143.2191  141.5213  167.4013 H       1  UNL1        0.1496
     22 N         142.1510  141.4276  167.5976 N.pl3   1  UNL1       -0.2930
     23 C         142.5679  140.6931  168.8373 C.3     1  UNL1        0.0937
     24 C         141.9059  140.9982  170.1482 C.3     1  UNL1        0.0378
     25 C         141.0094  141.6051  171.1866 C.3     1  UNL1        0.0035
     26 C         140.1459  142.6294  170.5121 C.3     1  UNL1        0.0035
     27 C         140.5087  142.6556  169.0568 C.3     1  UNL1        0.0378
     28 C         141.0722  142.4673  167.6690 C.3     1  UNL1        0.0937
     29 C         141.5964  141.6476  168.8319 C.3     1  UNL1        0.0750
     30 C         143.7256  141.9179  163.9879 C.ar    1  UNL1        0.2293
     31 C         143.0636  142.2231  165.2989 C.ar    1  UNL1        0.0920
     32 C         142.8131  141.1224  166.2866 C.ar    1  UNL1        0.1381
     33 N         143.2245  139.7166  165.9636 N.ar    1  UNL1       -0.2088
     34 C         143.8865  139.4115  164.6526 C.ar    1  UNL1        0.2027
     35 N         144.1371  140.5121  163.6647 N.ar    1  UNL1       -0.1892
     36 C         143.8544  144.4514  163.4268 C.3     1  UNL1        0.2542
     37 O         143.9762  143.0185  163.0000 O.3     1  UNL1       -0.4560
@<TRIPOS>BOND
     1    36    37    1
     2    37    30    1
     3    30    31   ar
     4    31    32   ar
     5    32    22    1
     6    22    23    1
     7    24    23    1
     8    24    25    1
     9    25    26    1
    10    27    26    1
    11    27    28    1
    12    27    29    1
    13    29    20    1
    14    20     1    1
    15     1     2   ar
    16     2     3   ar
    17     3     4   ar
    18     4     5   ar
    19     4     6    1
    20     6     7    1
    21     7     8    1
    22     8     9    1
    23     9    10    1
    24    10    11    1
    25    11    12   ar
    26    12    13   ar
    27    13    14   ar
    28    14    15    1
    29    14    16   ar
    30    16    17    1
    31    16    18   ar
    32    18    19    1
    33    32    33   ar
    34    33    34   ar
    35    34    35   ar
    36    35    30   ar
    37    28    22    1
    38     5     1   ar
    39    18    11   ar
    40    29    24    1
    41    10     3    1
    42    20    21    1
@<TRIPOS>MOLECULE
*****
 37 42 0 0 0
SMALL
GASTEIGER

@<TRIPOS>ATOM
      1 C         140.7099  139.5009  163.6130 C.ar    1  UNL1        0.2352
      2 N         140.9440  140.9386  163.2549 N.ar    1  UNL1       -0.1977
      3 C         142.4123  141.2159  163.3869 C.ar    1  UNL1        0.1428
      4 N         143.0854  139.9497  163.8265 N.ar    1  UNL1       -0.2348
      5 N         142.0334  138.8897  163.9662 N.ar    1  UNL1       -0.1330
      6 C         144.5412  139.7098  164.0974 C.3     1  UNL1        0.1289
      7 C         145.6832  140.6771  163.9955 C.3     1  UNL1        0.0264
      8 C         145.6515  142.1230  163.5977 C.3     1  UNL1        0.0028
      9 C         144.4700  142.9589  163.2034 C.3     1  UNL1        0.0121
     10 C         143.0284  142.5552  163.1096 C.3     1  UNL1        0.0828
     11 C         142.0772  143.6332  162.6819 C.ar    1  UNL1        0.0145
     12 C         141.2328  144.3366  163.7028 C.ar    1  UNL1        0.0008
     13 C         140.2815  145.4148  163.2751 C.ar    1  UNL1        0.0318
     14 C         140.1747  145.7895  161.8266 C.ar    1  UNL1        0.1696
     15 F         139.2235  146.8675  161.3989 F       1  UNL1       -0.2017
     16 C         141.0191  145.0860  160.8057 C.ar    1  UNL1        0.1943
     17 F         140.9123  145.4606  159.3572 F       1  UNL1       -0.1994
     18 C         141.9704  144.0079  161.2334 C.ar    1  UNL1        0.1660
     19 F         142.8148  143.3045  160.2125 F       1  UNL1       -0.2020
     20 N         139.3849  138.7978  163.6171 N.pl3   1  UNL1       -0.3033
     21 H         138.9683  138.5279  162.7669 H       1  UNL1        0.1496
     22 N         139.3191  138.8561  163.7473 N.pl3   1  UNL1       -0.2930
     23 C         139.0521  137.4367  164.1524 C.3     1  UNL1        0.0937
     24 C         138.3619  137.1448  165.4517 C.3     1  UNL1        0.0378
     25 C         137.6775  137.3217  166.7748 C.3     1  UNL1        0.0035
     26 C         137.5873  138.7920  167.0572 C.3     1  UNL1        0.0035
     27 C         138.2159  139.5240  165.9086 C.3     1  UNL1        0.0378
     28 C         138.8959  139.9835  164.6415 C.3     1  UNL1        0.0937
     29 C         138.6946  138.5060  164.9164 C.3     1  UNL1        0.0750
     30 C         140.3061  140.6429  160.3439 C.ar    1  UNL1        0.2293
     31 C         139.6157  140.3511  161.6433 C.ar    1  UNL1        0.0920
     32 C         140.0094  139.1479  162.4479 C.ar    1  UNL1        0.1381
     33 N         141.0933  138.2366  161.9532 N.ar    1  UNL1       -0.2088
     34 C         141.7836  138.5285  160.6538 C.ar    1  UNL1        0.2027
     35 N         141.3899  139.7317  159.8492 N.ar    1  UNL1       -0.1892
     36 C         138.5547  142.4577  159.7198 C.3     1  UNL1        0.2542
     37 O         139.9124  141.8461  159.5392 O.3     1  UNL1       -0.4560
@<TRIPOS>BOND
     1    36    37    1
     2    37    30    1
     3    30    31   ar
     4    31    32   ar
     5    32    22    1
     6    22    23    1
     7    24    23    1
     8    24    25    1
     9    25    26    1
    10    27    26    1
    11    27    28    1
    12    27    29    1
    13    29    20    1
    14    20     1    1
    15     1     2   ar
    16     2     3   ar
    17     3     4   ar
    18     4     5   ar
    19     4     6    1
    20     6     7    1
    21     7     8    1
    22     8     9    1
    23     9    10    1
    24    10    11    1
    25    11    12   ar
    26    12    13   ar
    27    13    14   ar
    28    14    15    1
    29    14    16   ar
    30    16    17    1
    31    16    18   ar
    32    18    19    1
    33    32    33   ar
    34    33    34   ar
    35    34    35   ar
    36    35    30   ar
    37    28    22    1
    38     5     1   ar
    39    18    11   ar
    40    29    24    1
    41    10     3    1
    42    20    21    1
@<TRIPOS>MOLECULE
*****
 37 42 0 0 0
SMALL
GASTEIGER

@<TRIPOS>ATOM
      1 C         140.9642  141.9879  163.9838 C.ar    1  UNL1        0.2352
      2 N         141.0720  142.0211  165.4795 N.ar    1  UNL1       -0.1977
      3 C         140.1234  141.0006  166.0353 C.ar    1  UNL1        0.1428
      4 N         139.4296  140.3367  164.8831 N.ar    1  UNL1       -0.2348
      5 N         139.9491  140.9469  163.6151 N.ar    1  UNL1       -0.1330
      6 C         138.3935  139.2525  164.9142 C.3     1  UNL1        0.1289
      7 C         137.7954  138.5643  166.1054 C.3     1  UNL1        0.0264
      8 C         138.0857  138.7905  167.5595 C.3     1  UNL1        0.0028
      9 C         139.0458  139.7606  168.1817 C.3     1  UNL1        0.0121
     10 C         139.9527  140.7442  167.5034 C.3     1  UNL1        0.0828
     11 C         140.8009  141.5822  168.4133 C.ar    1  UNL1        0.0145
     12 C         140.2918  142.9040  168.9070 C.ar    1  UNL1        0.0008
     13 C         141.1401  143.7421  169.8171 C.ar    1  UNL1        0.0318
     14 C         142.4975  143.2583  170.2335 C.ar    1  UNL1        0.1696
     15 F         143.3458  144.0963  171.1435 F       1  UNL1       -0.2017
     16 C         143.0067  141.9365  169.7398 C.ar    1  UNL1        0.1943
     17 F         144.3641  141.4528  170.1562 F       1  UNL1       -0.1994
     18 C         142.1584  141.0985  168.8297 C.ar    1  UNL1        0.1660
     19 F         142.6676  139.7767  168.3361 F       1  UNL1       -0.2020
     20 N         141.7360  142.8453  163.0250 N.pl3   1  UNL1       -0.3033
     21 H         142.6640  142.6119  162.7932 H       1  UNL1        0.1496
     22 N         141.6670  142.9841  163.0500 N.pl3   1  UNL1       -0.2930
     23 C         141.5386  143.0995  161.5599 C.3     1  UNL1        0.0937
     24 C         140.8967  144.3123  160.9542 C.3     1  UNL1        0.0378
     25 C         140.2175  145.6410  160.8017 C.3     1  UNL1        0.0035
     26 C         139.9951  146.2080  162.1724 C.3     1  UNL1        0.0035
     27 C         140.5369  145.2296  163.1722 C.3     1  UNL1        0.0378
     28 C         141.1535  144.0815  163.9342 C.3     1  UNL1        0.0937
     29 C         141.0941  144.0581  162.4193 C.3     1  UNL1        0.0750
     30 C         142.6916  139.2016  163.6768 C.ar    1  UNL1        0.2293
     31 C         142.0496  140.4145  163.0710 C.ar    1  UNL1        0.0920
     32 C         142.3089  141.7712  163.6558 C.ar    1  UNL1        0.1381
     33 N         143.2101  141.9152  164.8462 N.ar    1  UNL1       -0.2088
     34 C         143.8520  140.7022  165.4519 C.ar    1  UNL1        0.2027
     35 N         143.5927  139.3454  164.8671 N.ar    1  UNL1       -0.1892
     36 C         141.0509  137.2616  163.1336 C.3     1  UNL1        0.2542
     37 O         142.4323  137.8448  163.0920 O.3     1  UNL1       -0.4560
@<TRIPOS>BOND
     1    36    37    1
     2    37    30    1
     3    30    31   ar
     4    31    32   ar
     5    32    22    1
     6    22    23    1
     7    24    23    1
     8    24    25    1
     9    25    26    1
    10    27    26    1
    11    27    28    1
    12    27    29    1
    13    29    20    1
    14    20     1    1
    15     1     2   ar
    16     2     3   ar
    17     3     4   ar
    18     4     5   ar
    19     4     6    1
    20     6     7    1
    21     7     8    1
    22     8     9    1
    23     9    10    1
    24    10    11    1
    25    11    12   ar
    26    12    13   ar
    27    13    14   ar
    28    14    15    1
    29    14    16   ar
    30    16    17    1
    31    16    18   ar
    32    18    19    1
    33    32    33   ar
    34    33    34   ar
    35    34    35   ar
    36    35    30   ar
    37    28    22    1
    38     5     1   ar
    39    18    11   ar
    40    29    24    1
    41    10     3    1
    42    20    21    1
@<TRIPOS>MOLECULE
*****
 37 42 0 0 0
SMALL
GASTEIGER

@<TRIPOS>ATOM
      1 C         140.2662  141.2866  163.9066 C.ar    1  UNL1        0.2352
      2 N         140.4118  141.3193  165.3992 N.ar    1  UNL1       -0.1977
      3 C         141.5033  140.3632  165.7794 C.ar    1  UNL1        0.1428
      4 N         142.0322  139.7397  164.5220 N.ar    1  UNL1       -0.2348
      5 N         141.2676  140.3103  163.3645 N.ar    1  UNL1       -0.1330
      6 C         143.1249  138.7233  164.3699 C.3     1  UNL1        0.1289
      7 C         143.9585  138.0795  165.4380 C.3     1  UNL1        0.0264
      8 C         143.9053  138.2932  166.9217 C.3     1  UNL1        0.0028
      9 C         143.0054  139.2033  167.7040 C.3     1  UNL1        0.0121
     10 C         141.9364  140.1246  167.1956 C.3     1  UNL1        0.0828
     11 C         141.2037  140.9111  168.2416 C.ar    1  UNL1        0.0145
     12 C         139.9465  140.3627  168.8488 C.ar    1  UNL1        0.0008
     13 C         139.2136  141.1493  169.8950 C.ar    1  UNL1        0.0318
     14 C         139.7380  142.4843  170.3339 C.ar    1  UNL1        0.1696
     15 F         139.0053  143.2709  171.3799 F       1  UNL1       -0.2017
     16 C         140.9952  143.0328  169.7267 C.ar    1  UNL1        0.1943
     17 F         141.5197  144.3678  170.1656 F       1  UNL1       -0.1994
     18 C         141.7281  142.2462  168.6806 C.ar    1  UNL1        0.1660
     19 F         142.9853  142.7946  168.0734 F       1  UNL1       -0.2020
     20 N         139.2904  142.0892  163.0981 N.pl3   1  UNL1       -0.3033
     21 H         138.4138  141.7073  162.8637 H       1  UNL1        0.1496
     22 N         139.3899  142.1795  163.0168 N.pl3   1  UNL1       -0.2930
     23 C         138.5388  143.3458  163.4237 C.3     1  UNL1        0.0937
     24 C         138.8984  144.7303  162.9724 C.3     1  UNL1        0.0378
     25 C         139.6084  145.8779  162.3174 C.3     1  UNL1        0.0035
     26 C         140.7988  145.3307  161.5872 C.3     1  UNL1        0.0035
     27 C         140.8246  143.8447  161.7907 C.3     1  UNL1        0.0378
     28 C         140.6006  142.3978  162.1588 C.3     1  UNL1        0.0937
     29 C         139.6501  143.4737  162.6468 C.3     1  UNL1        0.0750
     30 C         138.0833  139.1950  165.2829 C.ar    1  UNL1        0.2293
     31 C         138.4430  140.5795  164.8316 C.ar    1  UNL1        0.0920
     32 C         139.0302  140.7949  163.4682 C.ar    1  UNL1        0.1381
     33 N         139.2576  139.6260  162.5562 N.ar    1  UNL1       -0.2088
     34 C         138.8978  138.2415  163.0076 C.ar    1  UNL1        0.2027
     35 N         138.3107  138.0260  164.3710 N.ar    1  UNL1       -0.1892
     36 C         137.2847  137.5862  167.1602 C.3     1  UNL1        0.2542
     37 O         137.4961  138.9795  166.6464 O.3     1  UNL1       -0.4560
@<TRIPOS>BOND
     1    36    37    1
     2    37    30    1
     3    30    31   ar
     4    31    32   ar
     5    32    22    1
     6    22    23    1
     7    24    23    1
     8    24    25    1
     9    25    26    1
    10    27    26    1
    11    27    28    1
    12    27    29    1
    13    29    20    1
    14    20     1    1
    15     1     2   ar
    16     2     3   ar
    17     3     4   ar
    18     4     5   ar
    19     4     6    1
    20     6     7    1
    21     7     8    1
    22     8     9    1
    23     9    10    1
    24    10    11    1
    25    11    12   ar
    26    12    13   ar
    27    13    14   ar
    28    14    15    1
    29    14    16   ar
    30    16    17    1
    31    16    18   ar
    32    18    19    1
    33    32    33   ar
    34    33    34   ar
    35    34    35   ar
    36    35    30   ar
    37    28    22    1
    38     5     1   ar
    39    18    11   ar
    40    29    24    1
    41    10     3    1
    42    20    21    1
@<TRIPOS>MOLECULE
*****
 37 42 0 0 0
SMALL
GASTEIGER

@<TRIPOS>ATOM
      1 C         139.8674  139.3082  163.1481 C.ar    1  UNL1        0.2352
      2 N         140.4267  140.6839  162.9368 N.ar    1  UNL1       -0.1977
      3 C         139.9019  141.2021  161.6306 C.ar    1  UNL1        0.1428
      4 N         139.0182  140.1467  161.0348 N.ar    1  UNL1       -0.2348
      5 N         138.9969  138.9762  161.9725 N.ar    1  UNL1       -0.1330
      6 C         138.2602  140.1827  159.7408 C.3     1  UNL1        0.1289
      7 C         138.1988  141.2832  158.7232 C.3     1  UNL1        0.0264
      8 C         138.8801  142.6191  158.7484 C.3     1  UNL1        0.0028
      9 C         139.7912  143.1849  159.7971 C.3     1  UNL1        0.0121
     10 C         140.2459  142.5542  161.0799 C.3     1  UNL1        0.0828
     11 C         141.1663  143.3856  161.9234 C.ar    1  UNL1        0.0145
     12 C         140.6063  144.2625  163.0039 C.ar    1  UNL1        0.0008
     13 C         141.5268  145.0940  163.8474 C.ar    1  UNL1        0.0318
     14 C         143.0073  145.0485  163.6105 C.ar    1  UNL1        0.1696
     15 F         143.9277  145.8799  164.4540 F       1  UNL1       -0.2017
     16 C         143.5673  144.1716  162.5300 C.ar    1  UNL1        0.1943
     17 F         145.0477  144.1261  162.2930 F       1  UNL1       -0.1994
     18 C         142.6469  143.3401  161.6864 C.ar    1  UNL1        0.1660
     19 F         143.2069  142.4632  160.6060 F       1  UNL1       -0.2020
     20 N         140.1321  138.4204  164.3278 N.pl3   1  UNL1       -0.3033
     21 H         140.9574  137.8850  164.3656 H       1  UNL1        0.1496
     22 N         140.0659  138.4936  164.4500 N.pl3   1  UNL1       -0.2930
     23 C         139.2517  137.2501  164.6522 C.3     1  UNL1        0.0937
     24 C         138.2590  137.1779  165.7744 C.3     1  UNL1        0.0378
     25 C         137.4283  137.5401  166.9697 C.3     1  UNL1        0.0035
     26 C         137.7952  138.9342  167.3840 C.3     1  UNL1        0.0035
     27 C         138.8528  139.4337  166.4447 C.3     1  UNL1        0.0378
     28 C         139.8873  139.6648  165.3698 C.3     1  UNL1        0.0937
     29 C         139.1394  138.3483  165.4500 C.3     1  UNL1        0.0750
     30 C         143.2597  139.5181  162.3287 C.ar    1  UNL1        0.2293
     31 C         142.2670  139.4460  163.4509 C.ar    1  UNL1        0.0920
     32 C         141.0586  138.5658  163.3277 C.ar    1  UNL1        0.1381
     33 N         140.8430  137.7577  162.0825 N.ar    1  UNL1       -0.2088
     34 C         141.8358  137.8299  160.9604 C.ar    1  UNL1        0.2027
     35 N         143.0441  138.7102  161.0835 N.ar    1  UNL1       -0.1892
     36 C         145.0087  140.7446  163.8074 C.3     1  UNL1        0.2542
     37 O         144.4681  140.3983  162.4518 O.3     1  UNL1       -0.4560
@<TRIPOS>BOND
     1    36    37    1
     2    37    30    1
     3    30    31   ar
     4    31    32   ar
     5    32    22    1
     6    22    23    1
     7    24    23    1
     8    24    25    1
     9    25    26    1
    10    27    26    1
    11    27    28    1
    12    27    29    1
    13    29    20    1
    14    20     1    1
    15     1     2   ar
    16     2     3   ar
    17     3     4   ar
    18     4     5   ar
    19     4     6    1
    20     6     7    1
    21     7     8    1
    22     8     9    1
    23     9    10    1
    24    10    11    1
    25    11    12   ar
    26    12    13   ar
    27    13    14   ar
    28    14    15    1
    29    14    16   ar
    30    16    17    1
    31    16    18   ar
    32    18    19    1
    33    32    33   ar
    34    33    34   ar
    35    34    35   ar
    36    35    30   ar
    37    28    22    1
    38     5     1   ar
    39    18    11   ar
    40    29    24    1
    41    10     3    1
    42    20    21    1
@<TRIPOS>MOLECULE
*****
 37 42 0 0 0
SMALL
GASTEIGER

@<TRIPOS>ATOM
      1 C         140.5932  140.6261  166.0478 C.ar    1  UNL1        0.2352
      2 N         140.7803  141.5796  164.9051 N.ar    1  UNL1       -0.1977
      3 C         141.8356  141.0168  163.9998 C.ar    1  UNL1        0.1428
      4 N         142.3006  139.7155  164.5830 N.ar    1  UNL1       -0.2348
      5 N         141.5328  139.4739  165.8487 N.ar    1  UNL1       -0.1330
      6 C         143.3400  138.7720  164.0542 C.3     1  UNL1        0.1289
      7 C         144.1710  138.8969  162.8116 C.3     1  UNL1        0.0264
      8 C         144.1678  139.9961  161.7911 C.3     1  UNL1        0.0028
      9 C         143.3329  141.2419  161.7608 C.3     1  UNL1        0.0121
     10 C         142.2949  141.6962  162.7438 C.3     1  UNL1        0.0828
     11 C         141.6282  143.0025  162.4293 C.ar    1  UNL1        0.0145
     12 C         141.6648  144.1224  163.4265 C.ar    1  UNL1        0.0008
     13 C         140.9980  145.4288  163.1119 C.ar    1  UNL1        0.0318
     14 C         140.2948  145.6152  161.8001 C.ar    1  UNL1        0.1696
     15 F         139.6281  146.9215  161.4856 F       1  UNL1       -0.2017
     16 C         140.2582  144.4953  160.8030 C.ar    1  UNL1        0.1943
     17 F         139.5550  144.6816  159.4912 F       1  UNL1       -0.1994
     18 C         140.9250  143.1889  161.1175 C.ar    1  UNL1        0.1660
     19 F         140.8884  142.0689  160.1203 F       1  UNL1       -0.2020
     20 N         139.6347  140.7950  167.1892 N.pl3   1  UNL1       -0.3033
     21 H         138.6867  140.5548  167.0756 H       1  UNL1        0.1496
     22 N         139.7050  140.9129  167.2656 N.pl3   1  UNL1       -0.2930
     23 C         139.5289  140.1030  168.5158 C.3     1  UNL1        0.0937
     24 C         140.0147  140.6376  169.8304 C.3     1  UNL1        0.0378
     25 C         140.6262  141.5306  170.8690 C.3     1  UNL1        0.0035
     26 C         141.1099  142.7745  170.1844 C.3     1  UNL1        0.0035
     27 C         140.7973  142.6503  168.7225 C.3     1  UNL1        0.0378
     28 C         140.3667  142.2574  167.3299 C.3     1  UNL1        0.0937
     29 C         140.1205  141.3297  168.5037 C.3     1  UNL1        0.0750
     30 C         138.0648  140.7598  163.6549 C.ar    1  UNL1        0.2293
     31 C         138.5506  141.2946  164.9695 C.ar    1  UNL1        0.0920
     32 C         139.2192  140.3781  165.9510 C.ar    1  UNL1        0.1381
     33 N         139.4019  138.9270  165.6179 N.ar    1  UNL1       -0.2088
     34 C         138.9161  138.3924  164.3033 C.ar    1  UNL1        0.2027
     35 N         138.2475  139.3088  163.3218 N.ar    1  UNL1       -0.1892
     36 C         137.5809  143.1605  162.7873 C.3     1  UNL1        0.2542
     37 O         137.3963  141.6762  162.6734 O.3     1  UNL1       -0.4560
@<TRIPOS>BOND
     1    36    37    1
     2    37    30    1
     3    30    31   ar
     4    31    32   ar
     5    32    22    1
     6    22    23    1
     7    24    23    1
     8    24    25    1
     9    25    26    1
    10    27    26    1
    11    27    28    1
    12    27    29    1
    13    29    20    1
    14    20     1    1
    15     1     2   ar
    16     2     3   ar
    17     3     4   ar
    18     4     5   ar
    19     4     6    1
    20     6     7    1
    21     7     8    1
    22     8     9    1
    23     9    10    1
    24    10    11    1
    25    11    12   ar
    26    12    13   ar
    27    13    14   ar
    28    14    15    1
    29    14    16   ar
    30    16    17    1
    31    16    18   ar
    32    18    19    1
    33    32    33   ar
    34    33    34   ar
    35    34    35   ar
    36    35    30   ar
    37    28    22    1
    38     5     1   ar
    39    18    11   ar
    40    29    24    1
    41    10     3    1
    42    20    21    1
@<TRIPOS>MOLECULE
*****
 37 42 0 0 0
SMALL
GASTEIGER

@<TRIPOS>ATOM
      1 C         141.9938  140.6770  166.1144 C.ar    1  UNL1        0.2352
      2 N         141.2349  140.8960  164.8392 N.ar    1  UNL1       -0.1977
      3 C         141.8017  142.1104  164.1653 C.ar    1  UNL1        0.1428
      4 N         142.9107  142.6418  165.0239 N.ar    1  UNL1       -0.2348
      5 N         143.0295  141.7560  166.2286 N.ar    1  UNL1       -0.1330
      6 C         143.7864  143.8365  164.7872 C.3     1  UNL1        0.1289
      7 C         143.7692  144.7947  163.6331 C.3     1  UNL1        0.0264
      8 C         142.8721  144.7948  162.4311 C.3     1  UNL1        0.0028
      9 C         141.7706  143.8369  162.0859 C.3     1  UNL1        0.0121
     10 C         141.2942  142.6422  162.8577 C.3     1  UNL1        0.0828
     11 C         140.1606  141.8783  162.2403 C.ar    1  UNL1        0.0145
     12 C         138.7610  142.0773  162.7419 C.ar    1  UNL1        0.0008
     13 C         137.6272  141.3134  162.1245 C.ar    1  UNL1        0.0318
     14 C         137.8930  140.3505  161.0055 C.ar    1  UNL1        0.1696
     15 F         136.7594  139.5866  160.3881 F       1  UNL1       -0.2017
     16 C         139.2926  140.1515  160.5039 C.ar    1  UNL1        0.1943
     17 F         139.5585  139.1886  159.3849 F       1  UNL1       -0.1994
     18 C         140.4264  140.9154  161.1213 C.ar    1  UNL1        0.1660
     19 F         141.8260  140.7164  160.6197 F       1  UNL1       -0.2020
     20 N         141.7583  139.5729  167.1021 N.pl3   1  UNL1       -0.3033
     21 H         142.1003  138.6680  166.9195 H       1  UNL1        0.1496
     22 N         141.6211  139.6126  167.1675 N.pl3   1  UNL1       -0.2930
     23 C         142.3161  139.5134  168.4932 C.3     1  UNL1        0.0937
     24 C         141.5597  139.7879  169.7590 C.3     1  UNL1        0.0378
     25 C         140.4572  140.1335  170.7157 C.3     1  UNL1        0.0035
     26 C         139.2180  140.4066  169.9159 C.3     1  UNL1        0.0035
     27 C         139.5546  140.2299  168.4648 C.3     1  UNL1        0.0378
     28 C         140.1698  139.9864  167.1078 C.3     1  UNL1        0.0937
     29 C         141.0017  139.8475  168.3678 C.3     1  UNL1        0.0750
     30 C         142.4402  138.4204  163.4719 C.ar    1  UNL1        0.2293
     31 C         141.6837  138.6950  164.7378 C.ar    1  UNL1        0.0920
     32 C         142.3777  139.3380  165.9017 C.ar    1  UNL1        0.1381
     33 N         143.8282  139.7064  165.8000 N.ar    1  UNL1       -0.2088
     34 C         144.5847  139.4318  164.5341 C.ar    1  UNL1        0.2027
     35 N         143.8906  138.7887  163.3701 N.ar    1  UNL1       -0.1892
     36 C         142.4389  137.6824  160.9808 C.3     1  UNL1        0.2542
     37 O         141.7462  137.7774  162.3079 O.3     1  UNL1       -0.4560
@<TRIPOS>BOND
     1    36    37    1
     2    37    30    1
     3    30    31   ar
     4    31    32   ar
     5    32    22    1
     6    22    23    1
     7    24    23    1
     8    24    25    1
     9    25    26    1
    10    27    26    1
    11    27    28    1
    12    27    29    1
    13    29    20    1
    14    20     1    1
    15     1     2   ar
    16     2     3   ar
    17     3     4   ar
    18     4     5   ar
    19     4     6    1
    20     6     7    1
    21     7     8    1
    22     8     9    1
    23     9    10    1
    24    10    11    1
    25    11    12   ar
    26    12    13   ar
    27    13    14   ar
    28    14    15    1
    29    14    16   ar
    30    16    17    1
    31    16    18   ar
    32    18    19    1
    33    32    33   ar
    34    33    34   ar
    35    34    35   ar
    36    35    30   ar
    37    28    22    1
    38     5     1   ar
    39    18    11   ar
    40    29    24    1
    41    10     3    1
    42    20    21    1
@<TRIPOS>MOLECULE
*****
 37 42 0 0 0
SMALL
GASTEIGER

@<TRIPOS>ATOM
      1 C         141.5743  140.7109  166.4496 C.ar    1  UNL1        0.2352
      2 N         141.0016  141.3551  165.2220 N.ar    1  UNL1       -0.1977
      3 C         140.3165  140.2910  164.4169 C.ar    1  UNL1        0.1428
      4 N         140.4657  138.9893  165.1469 N.ar    1  UNL1       -0.2348
      5 N         141.2431  139.2487  166.4032 N.ar    1  UNL1       -0.1330
      6 C         139.9576  137.6334  164.7548 C.3     1  UNL1        0.1289
      7 C         139.1748  137.2447  163.5357 C.3     1  UNL1        0.0264
      8 C         138.7067  138.1157  162.4078 C.3     1  UNL1        0.0028
      9 C         138.9058  139.5906  162.2203 C.3     1  UNL1        0.0121
     10 C         139.6223  140.5587  163.1144 C.3     1  UNL1        0.0828
     11 C         139.6478  141.9827  162.6439 C.ar    1  UNL1        0.0145
     12 C         140.8188  142.4915  161.8566 C.ar    1  UNL1        0.0008
     13 C         140.8445  143.9156  161.3860 C.ar    1  UNL1        0.0318
     14 C         139.6990  144.8309  161.7028 C.ar    1  UNL1        0.1696
     15 F         139.7246  146.2549  161.2323 F       1  UNL1       -0.2017
     16 C         138.5280  144.3221  162.4901 C.ar    1  UNL1        0.1943
     17 F         137.3825  145.2372  162.8068 F       1  UNL1       -0.1994
     18 C         138.5024  142.8979  162.9606 C.ar    1  UNL1        0.1660
     19 F         137.3313  142.3891  163.7479 F       1  UNL1       -0.2020
     20 N         142.3432  141.4068  167.5334 N.pl3   1  UNL1       -0.3033
     21 H         143.3035  141.5892  167.4162 H       1  UNL1        0.1496
     22 N         142.2328  141.4969  167.5993 N.pl3   1  UNL1       -0.2930
     23 C         142.6370  140.8944  168.9122 C.3     1  UNL1        0.0937
     24 C         141.9429  141.3122  170.1745 C.3     1  UNL1        0.0378
     25 C         141.0146  141.9992  171.1319 C.3     1  UNL1        0.0035
     26 C         140.1472  142.9362  170.3448 C.3     1  UNL1        0.0035
     27 C         140.5393  142.8283  168.9009 C.3     1  UNL1        0.0378
     28 C         141.1345  142.5172  167.5489 C.3     1  UNL1        0.0937
     29 C         141.6491  141.8247  168.7957 C.3     1  UNL1        0.0750
     30 C         143.8872  141.6691  163.9961 C.ar    1  UNL1        0.2293
     31 C         143.1931  142.0871  165.2585 C.ar    1  UNL1        0.0920
     32 C         142.9270  141.0790  166.3369 C.ar    1  UNL1        0.1381
     33 N         143.3550  139.6532  166.1531 N.ar    1  UNL1       -0.2088
     34 C         144.0491  139.2354  164.8907 C.ar    1  UNL1        0.2027
     35 N         144.3153  140.2434  163.8122 N.ar    1  UNL1       -0.1892
     36 C         144.0587  144.1431  163.2212 C.3     1  UNL1        0.2542
     37 O         144.1534  142.6772  162.9176 O.3     1  UNL1       -0.4560
@<TRIPOS>BOND
     1    36    37    1
     2    37    30    1
     3    30    31   ar
     4    31    32   ar
     5    32    22    1
     6    22    23    1
     7    24    23    1
     8    24    25    1
     9    25    26    1
    10    27    26    1
    11    27    28    1
    12    27    29    1
    13    29    20    1
    14    20     1    1
    15     1     2   ar
    16     2     3   ar
    17     3     4   ar
    18     4     5   ar
    19     4     6    1
    20     6     7    1
    21     7     8    1
    22     8     9    1
    23     9    10    1
    24    10    11    1
    25    11    12   ar
    26    12    13   ar
    27    13    14   ar
    28    14    15    1
    29    14    16   ar
    30    16    17    1
    31    16    18   ar
    32    18    19    1
    33    32    33   ar
    34    33    34   ar
    35    34    35   ar
    36    35    30   ar
    37    28    22    1
    38     5     1   ar
    39    18    11   ar
    40    29    24    1
    41    10     3    1
    42    20    21    1
@<TRIPOS>MOLECULE
*****
 37 42 0 0 0
SMALL
GASTEIGER

@<TRIPOS>ATOM
      1 C         141.8936  140.1949  164.8892 C.ar    1  UNL1        0.2352
      2 N         141.1381  141.2072  164.0802 N.ar    1  UNL1       -0.1977
      3 C         140.0918  140.4804  163.2884 C.ar    1  UNL1        0.1428
      4 N         140.2007  139.0190  163.6079 N.ar    1  UNL1       -0.2348
      5 N         141.3142  138.8424  164.5972 N.ar    1  UNL1       -0.1330
      6 C         139.3808  137.8814  163.0750 C.3     1  UNL1        0.1289
      7 C         138.2495  137.9246  162.0909 C.3     1  UNL1        0.0264
      8 C         137.6588  139.1158  161.3968 C.3     1  UNL1        0.0028
      9 C         138.0533  140.5582  161.5151 C.3     1  UNL1        0.0121
     10 C         139.1361  141.1655  162.3570 C.3     1  UNL1        0.0828
     11 C         139.2826  142.6547  162.2539 C.ar    1  UNL1        0.0145
     12 C         138.5501  143.5484  163.2102 C.ar    1  UNL1        0.0008
     13 C         138.6966  145.0377  163.1071 C.ar    1  UNL1        0.0318
     14 C         139.5757  145.6333  162.0476 C.ar    1  UNL1        0.1696
     15 F         139.7222  147.1225  161.9444 F       1  UNL1       -0.2017
     16 C         140.3082  144.7396  161.0912 C.ar    1  UNL1        0.1943
     17 F         141.1873  145.3350  160.0317 F       1  UNL1       -0.1994
     18 C         140.1617  143.2502  161.1943 C.ar    1  UNL1        0.1660
     19 F         140.8943  142.3565  160.2380 F       1  UNL1       -0.2020
     20 N         143.0291  140.4842  165.8256 N.pl3   1  UNL1       -0.3033
     21 H         143.9309  140.6530  165.4684 H       1  UNL1        0.1496
     22 N         143.0119  140.4015  165.9580 N.pl3   1  UNL1       -0.2930
     23 C         142.8356  141.7149  166.6609 C.3     1  UNL1        0.0937
     24 C         142.5972  141.7471  168.1415 C.3     1  UNL1        0.0378
     25 C         142.3909  141.3148  169.5630 C.3     1  UNL1        0.0035
     26 C         142.4570  139.8169  169.6062 C.3     1  UNL1        0.0035
     27 C         142.7041  139.3234  168.2113 C.3     1  UNL1        0.0378
     28 C         142.9500  139.1205  166.7357 C.3     1  UNL1        0.0937
     29 C         142.7908  140.5163  167.3062 C.3     1  UNL1        0.0750
     30 C         143.6996  139.0261  162.2994 C.ar    1  UNL1        0.2293
     31 C         143.4612  139.0582  163.7801 C.ar    1  UNL1        0.0920
     32 C         143.2503  140.3694  164.4774 C.ar    1  UNL1        0.1381
     33 N         143.2777  141.6484  163.6942 N.ar    1  UNL1       -0.2088
     34 C         143.5161  141.6162  162.2136 C.ar    1  UNL1        0.2027
     35 N         143.7270  140.3050  161.5162 N.ar    1  UNL1       -0.1892
     36 C         143.1594  137.4070  160.3406 C.3     1  UNL1        0.2542
     37 O         143.9105  137.7149  161.6020 O.3     1  UNL1       -0.4560
@<TRIPOS>BOND
     1    36    37    1
     2    37    30    1
     3    30    31   ar
     4    31    32   ar
     5    32    22    1
     6    22    23    1
     7    24    23    1
     8    24    25    1
     9    25    26    1
    10    27    26    1
    11    27    28    1
    12    27    29    1
    13    29    20    1
    14    20     1    1
    15     1     2   ar
    16     2     3   ar
    17     3     4   ar
    18     4     5   ar
    19     4     6    1
    20     6     7    1
    21     7     8    1
    22     8     9    1
    23     9    10    1
    24    10    11    1
    25    11    12   ar
    26    12    13   ar
    27    13    14   ar
    28    14    15    1
    29    14    16   ar
    30    16    17    1
    31    16    18   ar
    32    18    19    1
    33    32    33   ar
    34    33    34   ar
    35    34    35   ar
    36    35    30   ar
    37    28    22    1
    38     5     1   ar
    39    18    11   ar
    40    29    24    1
    41    10     3    1
    42    20    21    1
