@<TRIPOS>MOLECULE
*****
 36 41 0 0 0
SMALL
GASTEIGER

@<TRIPOS>ATOM
      1 S         139.9830  144.1464  158.5031 S.3     1  UNL1       -0.0756
      2 C         139.6418  140.9977  160.7469 C.ar    1  UNL1        0.1669
      3 N         138.2057  141.4053  160.5990 N.ar    1  UNL1       -0.1282
      4 N         138.1589  142.6344  159.7405 N.ar    1  UNL1       -0.1221
      5 C         139.5659  142.9865  159.3578 C.ar    1  UNL1        0.1932
      6 N         140.4823  141.9749  159.9798 N.ar    1  UNL1       -0.2884
      7 C         141.9769  141.9457  159.8563 C.3     1  UNL1        0.1340
      8 C         138.0844  138.7697  167.0605 C.3     1  UNL1        0.0521
      9 C         138.6004  139.0322  165.6767 C.ar    1  UNL1        0.0593
     10 C         138.0939  140.2102  164.8983 C.ar    1  UNL1        0.0147
     11 C         138.6099  140.4727  163.5146 C.ar    1  UNL1        0.0028
     12 C         139.6323  139.5572  162.9091 C.ar    1  UNL1        0.0206
     13 C         140.1482  139.8198  161.5252 C.ar    1  UNL1        0.0374
     14 C         141.1706  138.9043  160.9199 C.ar    1  UNL1        0.0031
     15 C         141.6771  137.7263  161.6982 C.ar    1  UNL1        0.0016
     16 C         141.1612  137.4638  163.0819 C.ar    1  UNL1        0.0191
     17 C         140.1387  138.3792  163.6874 C.ar    1  UNL1        0.0810
     18 N         139.6228  138.1167  165.0713 N.ar    1  UNL1       -0.2497
     19 C         140.3460  145.4550  159.1402 C.3     1  UNL1        0.0666
     20 C         140.9746  145.4774  160.5020 C.3     1  UNL1        0.0294
     21 C         140.1159  145.6323  161.7220 C.3     1  UNL1        0.0730
     22 N         140.3041  144.7141  162.8932 N.3     1  UNL1       -0.2720
     23 C         139.4627  145.0152  164.0979 C.3     1  UNL1        0.0785
     24 C         139.4182  144.2929  165.4119 C.3     1  UNL1        0.0643
     25 C         140.2041  143.0911  165.8454 C.ar    1  UNL1        0.0740
     26 N         140.0665  142.4578  167.1983 N.ar    1  UNL1       -0.2311
     27 C         141.0059  141.2902  167.2612 C.ar    1  UNL1        0.1472
     28 C         141.3002  140.2960  168.3452 C.ar    1  UNL1        0.0383
     29 C         142.3126  139.2134  168.1153 C.ar    1  UNL1        0.0160
     30 C         143.0309  139.1250  166.8013 C.ar    1  UNL1        0.0753
     31 CL        144.0435  138.0424  166.5714 Cl      1  UNL1       -0.0807
     32 C         142.7367  140.1192  165.7174 C.ar    1  UNL1        0.0925
     33 N         141.7242  141.2018  165.9473 N.ar    1  UNL1       -0.2920
     34 C         141.2286  142.3148  165.0723 C.ar    1  UNL1        0.0577
     35 C         141.7203  142.5486  163.6746 C.3     1  UNL1        0.0627
     36 C         141.3088  143.6164  162.7048 C.3     1  UNL1        0.0784
@<TRIPOS>BOND
     1     8     9    1
     2     9    10   ar
     3    10    11   ar
     4    11    12   ar
     5    12    13   ar
     6    13     2    1
     7     2     3   ar
     8     3     4   ar
     9     4     5   ar
    10     5     1    1
    11     1    19    1
    12    19    20    1
    13    20    21    1
    14    21    22    1
    15    22    23    1
    16    23    24    1
    17    24    25    1
    18    25    26   ar
    19    26    27   ar
    20    27    28   ar
    21    28    29   ar
    22    29    30   ar
    23    30    31    1
    24    30    32   ar
    25    32    33   ar
    26    33    34   ar
    27    34    35    1
    28    35    36    1
    29     5     6   ar
    30     6     7    1
    31    13    14   ar
    32    14    15   ar
    33    15    16   ar
    34    16    17   ar
    35    17    18   ar
    36    18     9   ar
    37    17    12   ar
    38     6     2   ar
    39    36    22    1
    40    34    25   ar
    41    33    27   ar
@<TRIPOS>MOLECULE
*****
 36 41 0 0 0
SMALL
GASTEIGER

@<TRIPOS>ATOM
      1 S         140.8805  145.2254  158.3353 S.3     1  UNL1       -0.0756
      2 C         141.4721  144.6287  162.1247 C.ar    1  UNL1        0.1669
      3 N         140.2644  145.5179  162.1563 N.ar    1  UNL1       -0.1282
      4 N         139.8958  145.8495  160.7407 N.ar    1  UNL1       -0.1221
      5 C         140.8757  145.1655  159.8341 C.ar    1  UNL1        0.1932
      6 N         141.8499  144.4110  160.6895 N.ar    1  UNL1       -0.2884
      7 C         143.0000  143.5839  160.1963 C.3     1  UNL1        0.1340
      8 C         139.3732  140.1050  166.8556 C.3     1  UNL1        0.0521
      9 C         140.0744  141.0932  165.9713 C.ar    1  UNL1        0.0593
     10 C         139.3684  141.6643  164.7773 C.ar    1  UNL1        0.0147
     11 C         140.0697  142.6524  163.8932 C.ar    1  UNL1        0.0028
     12 C         141.4768  143.0695  164.2029 C.ar    1  UNL1        0.0206
     13 C         142.1780  144.0577  163.3186 C.ar    1  UNL1        0.0374
     14 C         143.5852  144.4748  163.6284 C.ar    1  UNL1        0.0031
     15 C         144.2911  143.9037  164.8224 C.ar    1  UNL1        0.0016
     16 C         143.5899  142.9156  165.7065 C.ar    1  UNL1        0.0191
     17 C         142.1828  142.4985  165.3968 C.ar    1  UNL1        0.0810
     18 N         141.4816  141.5103  166.2811 N.ar    1  UNL1       -0.2497
     19 C         139.7205  144.6761  157.5591 C.3     1  UNL1        0.0666
     20 C         139.7872  143.2891  156.9916 C.3     1  UNL1        0.0294
     21 C         138.7626  142.2672  157.3864 C.3     1  UNL1        0.0730
     22 N         138.9735  141.4283  158.6120 N.3     1  UNL1       -0.2720
     23 C         137.8100  140.5766  159.0256 C.3     1  UNL1        0.0785
     24 C         137.7056  139.6383  160.1913 C.3     1  UNL1        0.0643
     25 C         138.7387  139.3201  161.2311 C.ar    1  UNL1        0.0740
     26 N         138.5087  138.3549  162.3562 N.ar    1  UNL1       -0.2311
     27 C         139.7594  138.2999  163.1826 C.ar    1  UNL1        0.1472
     28 C         140.1145  137.5222  164.4151 C.ar    1  UNL1        0.0383
     29 C         141.4725  137.6756  165.0333 C.ar    1  UNL1        0.0160
     30 C         142.4755  138.6067  164.4190 C.ar    1  UNL1        0.0753
     31 CL        143.8336  138.7601  165.0372 Cl      1  UNL1       -0.0807
     32 C         142.1203  139.3843  163.1865 C.ar    1  UNL1        0.0925
     33 N         140.7623  139.2310  162.5683 N.ar    1  UNL1       -0.2920
     34 C         140.1314  139.8614  161.3622 C.ar    1  UNL1        0.0577
     35 C         140.8350  140.8548  160.4858 C.3     1  UNL1        0.0627
     36 C         140.3196  141.5521  159.2618 C.3     1  UNL1        0.0784
@<TRIPOS>BOND
     1     8     9    1
     2     9    10   ar
     3    10    11   ar
     4    11    12   ar
     5    12    13   ar
     6    13     2    1
     7     2     3   ar
     8     3     4   ar
     9     4     5   ar
    10     5     1    1
    11     1    19    1
    12    19    20    1
    13    20    21    1
    14    21    22    1
    15    22    23    1
    16    23    24    1
    17    24    25    1
    18    25    26   ar
    19    26    27   ar
    20    27    28   ar
    21    28    29   ar
    22    29    30   ar
    23    30    31    1
    24    30    32   ar
    25    32    33   ar
    26    33    34   ar
    27    34    35    1
    28    35    36    1
    29     5     6   ar
    30     6     7    1
    31    13    14   ar
    32    14    15   ar
    33    15    16   ar
    34    16    17   ar
    35    17    18   ar
    36    18     9   ar
    37    17    12   ar
    38     6     2   ar
    39    36    22    1
    40    34    25   ar
    41    33    27   ar
@<TRIPOS>MOLECULE
*****
 36 41 0 0 0
SMALL
GASTEIGER

@<TRIPOS>ATOM
      1 S         140.9383  144.7404  157.9624 S.3     1  UNL1       -0.0756
      2 C         142.9460  143.5020  161.0447 C.ar    1  UNL1        0.1669
      3 N         143.6301  142.7590  159.9356 N.ar    1  UNL1       -0.1282
      4 N         142.9613  143.1325  158.6460 N.ar    1  UNL1       -0.1221
      5 C         141.8638  144.1063  158.9581 C.ar    1  UNL1        0.1932
      6 N         141.8544  144.3346  160.4405 N.ar    1  UNL1       -0.2884
      7 C         140.9178  145.2371  161.1877 C.3     1  UNL1        0.1340
      8 C         142.5549  138.2784  165.4958 C.3     1  UNL1        0.0521
      9 C         142.7393  139.5652  164.7473 C.ar    1  UNL1        0.0593
     10 C         142.3926  139.6415  163.2900 C.ar    1  UNL1        0.0147
     11 C         142.5771  140.9283  162.5416 C.ar    1  UNL1        0.0028
     12 C         143.1083  142.1388  163.2505 C.ar    1  UNL1        0.0206
     13 C         143.2927  143.4256  162.5020 C.ar    1  UNL1        0.0374
     14 C         143.8239  144.6360  163.2111 C.ar    1  UNL1        0.0031
     15 C         144.1706  144.5597  164.6684 C.ar    1  UNL1        0.0016
     16 C         143.9862  143.2730  165.4168 C.ar    1  UNL1        0.0191
     17 C         143.4550  142.0625  164.7079 C.ar    1  UNL1        0.0810
     18 N         143.2705  140.7757  165.4564 N.ar    1  UNL1       -0.2497
     19 C         139.6584  144.0548  157.5858 C.3     1  UNL1        0.0666
     20 C         139.4870  142.5883  157.8507 C.3     1  UNL1        0.0294
     21 C         138.2766  142.0957  158.5870 C.3     1  UNL1        0.0730
     22 N         138.4143  141.5544  159.9792 N.3     1  UNL1       -0.2720
     23 C         137.9925  140.1272  160.1671 C.3     1  UNL1        0.0785
     24 C         138.0078  139.3049  161.4217 C.3     1  UNL1        0.0643
     25 C         138.4486  139.7068  162.7979 C.ar    1  UNL1        0.0740
     26 N         138.4144  138.7830  163.9792 N.ar    1  UNL1       -0.2311
     27 C         138.9277  139.5354  165.1710 C.ar    1  UNL1        0.1472
     28 C         139.1204  139.1353  166.6038 C.ar    1  UNL1        0.0383
     29 C         139.6645  140.1240  167.5918 C.ar    1  UNL1        0.0160
     30 C         140.0159  141.5129  167.1472 C.ar    1  UNL1        0.0753
     31 CL        140.5601  142.5017  168.1353 Cl      1  UNL1       -0.0807
     32 C         139.8232  141.9129  165.7144 C.ar    1  UNL1        0.0925
     33 N         139.2791  140.9242  164.7264 N.ar    1  UNL1       -0.2920
     34 C         138.9830  141.0301  163.2597 C.ar    1  UNL1        0.0577
     35 C         139.2085  142.2785  162.4592 C.3     1  UNL1        0.0627
     36 C         138.9554  142.5117  160.9992 C.3     1  UNL1        0.0784
@<TRIPOS>BOND
     1     8     9    1
     2     9    10   ar
     3    10    11   ar
     4    11    12   ar
     5    12    13   ar
     6    13     2    1
     7     2     3   ar
     8     3     4   ar
     9     4     5   ar
    10     5     1    1
    11     1    19    1
    12    19    20    1
    13    20    21    1
    14    21    22    1
    15    22    23    1
    16    23    24    1
    17    24    25    1
    18    25    26   ar
    19    26    27   ar
    20    27    28   ar
    21    28    29   ar
    22    29    30   ar
    23    30    31    1
    24    30    32   ar
    25    32    33   ar
    26    33    34   ar
    27    34    35    1
    28    35    36    1
    29     5     6   ar
    30     6     7    1
    31    13    14   ar
    32    14    15   ar
    33    15    16   ar
    34    16    17   ar
    35    17    18   ar
    36    18     9   ar
    37    17    12   ar
    38     6     2   ar
    39    36    22    1
    40    34    25   ar
    41    33    27   ar
@<TRIPOS>MOLECULE
*****
 36 41 0 0 0
SMALL
GASTEIGER

@<TRIPOS>ATOM
      1 S         143.4819  143.2229  159.0390 S.3     1  UNL1       -0.0756
      2 C         143.2380  141.6327  162.5714 C.ar    1  UNL1        0.1669
      3 N         143.6705  143.0284  162.9109 N.ar    1  UNL1       -0.1282
      4 N         143.8144  143.7939  161.6290 N.ar    1  UNL1       -0.1221
      5 C         143.4710  142.8714  160.4972 C.ar    1  UNL1        0.1932
      6 N         143.1148  141.5358  161.0796 N.ar    1  UNL1       -0.2884
      7 C         142.7069  140.3170  160.3060 C.3     1  UNL1        0.1340
      8 C         143.0930  141.6544  169.4437 C.3     1  UNL1        0.0521
      9 C         143.0635  141.3728  167.9706 C.ar    1  UNL1        0.0593
     10 C         143.3265  142.4775  166.9905 C.ar    1  UNL1        0.0147
     11 C         143.2970  142.1959  165.5175 C.ar    1  UNL1        0.0028
     12 C         143.0046  140.8097  165.0245 C.ar    1  UNL1        0.0206
     13 C         142.9751  140.5282  163.5514 C.ar    1  UNL1        0.0374
     14 C         142.6827  139.1420  163.0586 C.ar    1  UNL1        0.0031
     15 C         142.4198  138.0373  164.0387 C.ar    1  UNL1        0.0016
     16 C         142.4492  138.3189  165.5117 C.ar    1  UNL1        0.0191
     17 C         142.7416  139.7050  166.0046 C.ar    1  UNL1        0.0810
     18 N         142.7711  139.9866  167.4777 N.ar    1  UNL1       -0.2497
     19 C         142.2455  143.7715  158.3906 C.3     1  UNL1        0.0666
     20 C         141.6369  145.0464  158.8948 C.3     1  UNL1        0.0294
     21 C         140.3064  145.0199  159.5870 C.3     1  UNL1        0.0730
     22 N         140.1629  144.3278  160.9100 N.3     1  UNL1       -0.2720
     23 C         140.4090  145.1794  162.1201 C.3     1  UNL1        0.0785
     24 C         140.3452  144.7891  163.5671 C.3     1  UNL1        0.0643
     25 C         140.0197  143.4509  164.1612 C.ar    1  UNL1        0.0740
     26 N         139.9889  143.1878  165.6377 N.ar    1  UNL1       -0.2311
     27 C         139.6278  141.7466  165.8442 C.ar    1  UNL1        0.1472
     28 C         139.4493  140.9247  167.0863 C.ar    1  UNL1        0.0383
     29 C         139.0783  139.4752  166.9795 C.ar    1  UNL1        0.0160
     30 C         138.8858  138.8477  165.6307 C.ar    1  UNL1        0.0753
     31 CL        138.5149  137.3981  165.5239 Cl      1  UNL1       -0.0807
     32 C         139.0643  139.6696  164.3887 C.ar    1  UNL1        0.0925
     33 N         139.4353  141.1190  164.4954 N.ar    1  UNL1       -0.2920
     34 C         139.6775  142.1724  163.4553 C.ar    1  UNL1        0.0577
     35 C         139.5763  141.9164  161.9808 C.3     1  UNL1        0.0627
     36 C         139.7924  142.8757  160.8481 C.3     1  UNL1        0.0784
@<TRIPOS>BOND
     1     8     9    1
     2     9    10   ar
     3    10    11   ar
     4    11    12   ar
     5    12    13   ar
     6    13     2    1
     7     2     3   ar
     8     3     4   ar
     9     4     5   ar
    10     5     1    1
    11     1    19    1
    12    19    20    1
    13    20    21    1
    14    21    22    1
    15    22    23    1
    16    23    24    1
    17    24    25    1
    18    25    26   ar
    19    26    27   ar
    20    27    28   ar
    21    28    29   ar
    22    29    30   ar
    23    30    31    1
    24    30    32   ar
    25    32    33   ar
    26    33    34   ar
    27    34    35    1
    28    35    36    1
    29     5     6   ar
    30     6     7    1
    31    13    14   ar
    32    14    15   ar
    33    15    16   ar
    34    16    17   ar
    35    17    18   ar
    36    18     9   ar
    37    17    12   ar
    38     6     2   ar
    39    36    22    1
    40    34    25   ar
    41    33    27   ar
@<TRIPOS>MOLECULE
*****
 36 41 0 0 0
SMALL
GASTEIGER

@<TRIPOS>ATOM
      1 S         142.5863  140.3370  156.8159 S.3     1  UNL1       -0.0756
      2 C         141.5124  138.5189  160.0727 C.ar    1  UNL1        0.1669
      3 N         142.5977  137.6095  159.5774 N.ar    1  UNL1       -0.1282
      4 N         143.1321  138.1800  158.2972 N.ar    1  UNL1       -0.1221
      5 C         142.3770  139.4418  158.0012 C.ar    1  UNL1        0.1932
      6 N         141.3760  139.6512  159.0985 N.ar    1  UNL1       -0.2884
      7 C         140.4084  140.7927  159.2032 C.3     1  UNL1        0.1340
      8 C         143.3620  138.6763  166.6912 C.3     1  UNL1        0.0521
      9 C         142.6978  138.5895  165.3490 C.ar    1  UNL1        0.0593
     10 C         143.5050  138.7793  164.0991 C.ar    1  UNL1        0.0147
     11 C         142.8408  138.6925  162.7570 C.ar    1  UNL1        0.0028
     12 C         141.3694  138.4159  162.6648 C.ar    1  UNL1        0.0206
     13 C         140.7052  138.3291  161.3226 C.ar    1  UNL1        0.0374
     14 C         139.2338  138.0525  161.2305 C.ar    1  UNL1        0.0031
     15 C         138.4266  137.8628  162.4805 C.ar    1  UNL1        0.0016
     16 C         139.0908  137.9496  163.8225 C.ar    1  UNL1        0.0191
     17 C         140.5622  138.2261  163.9147 C.ar    1  UNL1        0.0810
     18 N         141.2264  138.3129  165.2569 N.ar    1  UNL1       -0.2497
     19 C         143.9689  140.7937  156.4559 C.3     1  UNL1        0.0666
     20 C         144.9045  141.2692  157.5277 C.3     1  UNL1        0.0294
     21 C         144.8116  142.6784  158.0333 C.3     1  UNL1        0.0730
     22 N         143.7240  143.0607  158.9930 N.3     1  UNL1       -0.2720
     23 C         142.6057  143.8780  158.4172 C.3     1  UNL1        0.0785
     24 C         141.3856  144.4116  159.1078 C.3     1  UNL1        0.0643
     25 C         140.9827  144.2598  160.5445 C.ar    1  UNL1        0.0740
     26 N         139.7265  144.8468  161.1170 N.ar    1  UNL1       -0.2311
     27 C         139.6677  144.4867  162.5719 C.ar    1  UNL1        0.1472
     28 C         138.6610  144.7914  163.6414 C.ar    1  UNL1        0.0383
     29 C         138.8741  144.2865  165.0376 C.ar    1  UNL1        0.0160
     30 C         140.0938  143.4768  165.3645 C.ar    1  UNL1        0.0753
     31 CL        140.3069  142.9719  166.7609 Cl      1  UNL1       -0.0807
     32 C         141.1004  143.1722  164.2950 C.ar    1  UNL1        0.0925
     33 N         140.8875  143.6770  162.8988 N.ar    1  UNL1       -0.2920
     34 C         141.7001  143.5368  161.6458 C.ar    1  UNL1        0.0577
     35 C         142.9978  142.7871  161.5821 C.3     1  UNL1        0.0627
     36 C         143.8984  142.5753  160.4014 C.3     1  UNL1        0.0784
@<TRIPOS>BOND
     1     8     9    1
     2     9    10   ar
     3    10    11   ar
     4    11    12   ar
     5    12    13   ar
     6    13     2    1
     7     2     3   ar
     8     3     4   ar
     9     4     5   ar
    10     5     1    1
    11     1    19    1
    12    19    20    1
    13    20    21    1
    14    21    22    1
    15    22    23    1
    16    23    24    1
    17    24    25    1
    18    25    26   ar
    19    26    27   ar
    20    27    28   ar
    21    28    29   ar
    22    29    30   ar
    23    30    31    1
    24    30    32   ar
    25    32    33   ar
    26    33    34   ar
    27    34    35    1
    28    35    36    1
    29     5     6   ar
    30     6     7    1
    31    13    14   ar
    32    14    15   ar
    33    15    16   ar
    34    16    17   ar
    35    17    18   ar
    36    18     9   ar
    37    17    12   ar
    38     6     2   ar
    39    36    22    1
    40    34    25   ar
    41    33    27   ar
@<TRIPOS>MOLECULE
*****
 36 41 0 0 0
SMALL
GASTEIGER

@<TRIPOS>ATOM
      1 S         140.1630  139.9072  156.1174 S.3     1  UNL1       -0.0756
      2 C         138.5417  139.7455  159.6403 C.ar    1  UNL1        0.1669
      3 N         137.3575  140.1043  158.7924 N.ar    1  UNL1       -0.1282
      4 N         137.8207  140.2086  157.3695 N.ar    1  UNL1       -0.1221
      5 C         139.2912  139.9142  157.3380 C.ar    1  UNL1        0.1932
      6 N         139.7368  139.6280  158.7414 N.ar    1  UNL1       -0.2884
      7 C         141.1325  139.2846  159.1706 C.3     1  UNL1        0.1340
      8 C         137.8699  144.2378  164.7996 C.3     1  UNL1        0.0521
      9 C         138.0356  143.0634  163.8812 C.ar    1  UNL1        0.0593
     10 C         138.0448  143.2687  162.3953 C.ar    1  UNL1        0.0147
     11 C         138.2105  142.0943  161.4770 C.ar    1  UNL1        0.0028
     12 C         138.3668  140.7146  162.0445 C.ar    1  UNL1        0.0206
     13 C         138.5325  139.5402  161.1261 C.ar    1  UNL1        0.0374
     14 C         138.6888  138.1606  161.6936 C.ar    1  UNL1        0.0031
     15 C         138.6795  137.9553  163.1795 C.ar    1  UNL1        0.0016
     16 C         138.5139  139.1296  164.0978 C.ar    1  UNL1        0.0191
     17 C         138.3576  140.5093  163.5303 C.ar    1  UNL1        0.0810
     18 N         138.1919  141.6837  164.4487 N.ar    1  UNL1       -0.2497
     19 C         140.0111  140.9812  155.0813 C.3     1  UNL1        0.0666
     20 C         140.8352  142.2315  155.1707 C.3     1  UNL1        0.0294
     21 C         140.3389  143.4014  155.9675 C.3     1  UNL1        0.0730
     22 N         140.7988  143.5948  157.3820 N.3     1  UNL1       -0.2720
     23 C         140.0482  144.6228  158.1756 C.3     1  UNL1        0.0785
     24 C         140.2619  145.0445  159.5993 C.3     1  UNL1        0.0643
     25 C         141.2790  144.5424  160.5807 C.ar    1  UNL1        0.0740
     26 N         141.3905  145.0502  161.9878 N.ar    1  UNL1       -0.2311
     27 C         142.5140  144.3161  162.6578 C.ar    1  UNL1        0.1472
     28 C         143.0816  144.3989  164.0438 C.ar    1  UNL1        0.0383
     29 C         144.2320  143.5203  164.4368 C.ar    1  UNL1        0.0160
     30 C         144.8149  142.5589  163.4438 C.ar    1  UNL1        0.0753
     31 CL        145.9654  141.6802  163.8368 Cl      1  UNL1       -0.0807
     32 C         144.2473  142.4761  162.0579 C.ar    1  UNL1        0.0925
     33 N         143.0969  143.3546  161.6648 N.ar    1  UNL1       -0.2920
     34 C         142.3336  143.4945  160.3811 C.ar    1  UNL1        0.0577
     35 C         142.6315  142.6900  159.1507 C.3     1  UNL1        0.0627
     36 C         141.9484  142.7347  157.8160 C.3     1  UNL1        0.0784
@<TRIPOS>BOND
     1     8     9    1
     2     9    10   ar
     3    10    11   ar
     4    11    12   ar
     5    12    13   ar
     6    13     2    1
     7     2     3   ar
     8     3     4   ar
     9     4     5   ar
    10     5     1    1
    11     1    19    1
    12    19    20    1
    13    20    21    1
    14    21    22    1
    15    22    23    1
    16    23    24    1
    17    24    25    1
    18    25    26   ar
    19    26    27   ar
    20    27    28   ar
    21    28    29   ar
    22    29    30   ar
    23    30    31    1
    24    30    32   ar
    25    32    33   ar
    26    33    34   ar
    27    34    35    1
    28    35    36    1
    29     5     6   ar
    30     6     7    1
    31    13    14   ar
    32    14    15   ar
    33    15    16   ar
    34    16    17   ar
    35    17    18   ar
    36    18     9   ar
    37    17    12   ar
    38     6     2   ar
    39    36    22    1
    40    34    25   ar
    41    33    27   ar
@<TRIPOS>MOLECULE
*****
 36 41 0 0 0
SMALL
GASTEIGER

@<TRIPOS>ATOM
      1 S         140.1802  143.7070  157.9771 S.3     1  UNL1       -0.0756
      2 C         140.3784  140.5014  160.1566 C.ar    1  UNL1        0.1669
      3 N         141.5761  140.3242  159.2709 N.ar    1  UNL1       -0.1282
      4 N         141.6475  141.5035  158.3467 N.ar    1  UNL1       -0.1221
      5 C         140.4941  142.4095  158.6611 C.ar    1  UNL1        0.1932
      6 N         139.7098  141.7901  159.7797 N.ar    1  UNL1       -0.2884
      7 C         138.4738  142.3595  160.4106 C.3     1  UNL1        0.1340
      8 C         143.3962  138.6013  166.0331 C.3     1  UNL1        0.0521
      9 C         142.5293  138.8400  164.8324 C.ar    1  UNL1        0.0593
     10 C         142.9792  139.7856  163.7584 C.ar    1  UNL1        0.0147
     11 C         142.1123  140.0242  162.5578 C.ar    1  UNL1        0.0028
     12 C         140.7954  139.3172  162.4312 C.ar    1  UNL1        0.0206
     13 C         139.9285  139.5558  161.2305 C.ar    1  UNL1        0.0374
     14 C         138.6117  138.8488  161.1039 C.ar    1  UNL1        0.0031
     15 C         138.1617  137.9032  162.1779 C.ar    1  UNL1        0.0016
     16 C         139.0286  137.6646  163.3784 C.ar    1  UNL1        0.0191
     17 C         140.3455  138.3716  163.5051 C.ar    1  UNL1        0.0810
     18 N         141.2124  138.1329  164.7058 N.ar    1  UNL1       -0.2497
     19 C         140.6408  145.0020  158.5776 C.3     1  UNL1        0.0666
     20 C         141.3823  145.0022  159.8817 C.3     1  UNL1        0.0294
     21 C         140.6478  145.2695  161.1619 C.3     1  UNL1        0.0730
     22 N         141.0770  144.5904  162.4287 N.3     1  UNL1       -0.2720
     23 C         142.5566  144.5380  162.6698 C.3     1  UNL1        0.0785
     24 C         143.2945  143.9357  163.8287 C.3     1  UNL1        0.0643
     25 C         142.7351  143.2373  165.0324 C.ar    1  UNL1        0.0740
     26 N         143.5869  142.6745  166.1314 N.ar    1  UNL1       -0.2311
     27 C         142.6779  142.0579  167.1529 C.ar    1  UNL1        0.1472
     28 C         142.9548  141.3544  168.4485 C.ar    1  UNL1        0.0383
     29 C         141.8180  140.8326  169.2764 C.ar    1  UNL1        0.0160
     30 C         140.4044  141.0143  168.8088 C.ar    1  UNL1        0.0753
     31 CL        139.2675  140.4925  169.6367 Cl      1  UNL1       -0.0807
     32 C         140.1276  141.7177  167.5132 C.ar    1  UNL1        0.0925
     33 N         141.2642  142.2395  166.6853 N.ar    1  UNL1       -0.2920
     34 C         141.2996  142.9684  165.3748 C.ar    1  UNL1        0.0577
     35 C         140.0690  143.3317  164.5978 C.3     1  UNL1        0.0627
     36 C         139.9700  144.0536  163.2867 C.3     1  UNL1        0.0784
@<TRIPOS>BOND
     1     8     9    1
     2     9    10   ar
     3    10    11   ar
     4    11    12   ar
     5    12    13   ar
     6    13     2    1
     7     2     3   ar
     8     3     4   ar
     9     4     5   ar
    10     5     1    1
    11     1    19    1
    12    19    20    1
    13    20    21    1
    14    21    22    1
    15    22    23    1
    16    23    24    1
    17    24    25    1
    18    25    26   ar
    19    26    27   ar
    20    27    28   ar
    21    28    29   ar
    22    29    30   ar
    23    30    31    1
    24    30    32   ar
    25    32    33   ar
    26    33    34   ar
    27    34    35    1
    28    35    36    1
    29     5     6   ar
    30     6     7    1
    31    13    14   ar
    32    14    15   ar
    33    15    16   ar
    34    16    17   ar
    35    17    18   ar
    36    18     9   ar
    37    17    12   ar
    38     6     2   ar
    39    36    22    1
    40    34    25   ar
    41    33    27   ar
@<TRIPOS>MOLECULE
*****
 36 41 0 0 0
SMALL
GASTEIGER

@<TRIPOS>ATOM
      1 S         140.4120  139.9663  156.6176 S.3     1  UNL1       -0.0756
      2 C         138.6847  139.7175  160.0845 C.ar    1  UNL1        0.1669
      3 N         137.5025  139.9318  159.1864 N.ar    1  UNL1       -0.1282
      4 N         138.0057  140.0511  157.7784 N.ar    1  UNL1       -0.1221
      5 C         139.4989  139.9105  157.8063 C.ar    1  UNL1        0.1932
      6 N         139.9184  139.7043  159.2315 N.ar    1  UNL1       -0.2884
      7 C         141.3249  139.5177  159.7184 C.3     1  UNL1        0.1340
      8 C         137.7073  144.3004  165.1137 C.3     1  UNL1        0.0521
      9 C         137.9406  143.1119  164.2287 C.ar    1  UNL1        0.0593
     10 C         137.9846  143.2830  162.7392 C.ar    1  UNL1        0.0147
     11 C         138.2180  142.0945  161.8543 C.ar    1  UNL1        0.0028
     12 C         138.4074  140.7349  162.4590 C.ar    1  UNL1        0.0206
     13 C         138.6407  139.5464  161.5740 C.ar    1  UNL1        0.0374
     14 C         138.8301  138.1869  162.1788 C.ar    1  UNL1        0.0031
     15 C         138.7861  138.0158  163.6683 C.ar    1  UNL1        0.0016
     16 C         138.5528  139.2042  164.5532 C.ar    1  UNL1        0.0191
     17 C         138.3634  140.5638  163.9485 C.ar    1  UNL1        0.0810
     18 N         138.1300  141.7523  164.8335 N.ar    1  UNL1       -0.2497
     19 C         140.3312  141.1208  155.6634 C.3     1  UNL1        0.0666
     20 C         140.4006  142.5273  156.1802 C.3     1  UNL1        0.0294
     21 C         141.7240  143.1219  156.5610 C.3     1  UNL1        0.0730
     22 N         142.2322  142.9835  157.9655 N.3     1  UNL1       -0.2720
     23 C         143.7005  142.7080  158.1020 C.3     1  UNL1        0.0785
     24 C         144.5042  142.5199  159.3546 C.3     1  UNL1        0.0643
     25 C         144.0382  142.5607  160.7796 C.ar    1  UNL1        0.0740
     26 N         144.9495  142.3552  161.9533 N.ar    1  UNL1       -0.2311
     27 C         144.1280  142.4672  163.2033 C.ar    1  UNL1        0.1472
     28 C         144.4888  142.3545  164.6549 C.ar    1  UNL1        0.0383
     29 C         143.4306  142.5166  165.7055 C.ar    1  UNL1        0.0160
     30 C         142.0115  142.7914  165.3045 C.ar    1  UNL1        0.0753
     31 CL        140.9531  142.9535  166.3551 Cl      1  UNL1       -0.0807
     32 C         141.6507  142.9041  163.8529 C.ar    1  UNL1        0.0925
     33 N         142.7089  142.7420  162.8023 N.ar    1  UNL1       -0.2920
     34 C         142.6535  142.7998  161.3044 C.ar    1  UNL1        0.0577
     35 C         141.3927  143.0571  160.5336 C.3     1  UNL1        0.0627
     36 C         141.2053  143.1388  159.0476 C.3     1  UNL1        0.0784
@<TRIPOS>BOND
     1     8     9    1
     2     9    10   ar
     3    10    11   ar
     4    11    12   ar
     5    12    13   ar
     6    13     2    1
     7     2     3   ar
     8     3     4   ar
     9     4     5   ar
    10     5     1    1
    11     1    19    1
    12    19    20    1
    13    20    21    1
    14    21    22    1
    15    22    23    1
    16    23    24    1
    17    24    25    1
    18    25    26   ar
    19    26    27   ar
    20    27    28   ar
    21    28    29   ar
    22    29    30   ar
    23    30    31    1
    24    30    32   ar
    25    32    33   ar
    26    33    34   ar
    27    34    35    1
    28    35    36    1
    29     5     6   ar
    30     6     7    1
    31    13    14   ar
    32    14    15   ar
    33    15    16   ar
    34    16    17   ar
    35    17    18   ar
    36    18     9   ar
    37    17    12   ar
    38     6     2   ar
    39    36    22    1
    40    34    25   ar
    41    33    27   ar
@<TRIPOS>MOLECULE
*****
 36 41 0 0 0
SMALL
GASTEIGER

@<TRIPOS>ATOM
      1 S         141.1977  144.9019  157.7201 S.3     1  UNL1       -0.0756
      2 C         139.0686  143.3850  160.5892 C.ar    1  UNL1        0.1669
      3 N         138.3966  142.7935  159.3856 N.ar    1  UNL1       -0.1282
      4 N         139.1124  143.2897  158.1644 N.ar    1  UNL1       -0.1221
      5 C         140.2268  144.1879  158.6132 C.ar    1  UNL1        0.1932
      6 N         140.1997  144.2467  160.1118 N.ar    1  UNL1       -0.2884
      7 C         141.1389  145.0299  160.9805 C.3     1  UNL1        0.1340
      8 C         139.2934  137.7077  164.4582 C.3     1  UNL1        0.0521
      9 C         139.1396  139.0695  163.8484 C.ar    1  UNL1        0.0593
     10 C         139.5301  139.2995  162.4185 C.ar    1  UNL1        0.0147
     11 C         139.3763  140.6613  161.8088 C.ar    1  UNL1        0.0028
     12 C         138.8319  141.7932  162.6288 C.ar    1  UNL1        0.0206
     13 C         138.6781  143.1550  162.0190 C.ar    1  UNL1        0.0374
     14 C         138.1338  144.2868  162.8392 C.ar    1  UNL1        0.0031
     15 C         137.7433  144.0569  164.2691 C.ar    1  UNL1        0.0016
     16 C         137.8971  142.6951  164.8789 C.ar    1  UNL1        0.0191
     17 C         138.4414  141.5632  164.0588 C.ar    1  UNL1        0.0810
     18 N         138.5952  140.2014  164.6686 N.ar    1  UNL1       -0.2497
     19 C         142.2541  144.1270  156.9896 C.3     1  UNL1        0.0666
     20 C         143.3304  143.4184  157.7575 C.3     1  UNL1        0.0294
     21 C         143.3199  141.9217  157.8561 C.3     1  UNL1        0.0730
     22 N         143.2371  141.2592  159.1993 N.3     1  UNL1       -0.2720
     23 C         143.2315  139.7591  159.1858 C.3     1  UNL1        0.0785
     24 C         143.1583  138.8137  160.3481 C.3     1  UNL1        0.0643
     25 C         143.0727  139.1347  161.8107 C.ar    1  UNL1        0.0740
     26 N         143.0044  138.0886  162.8837 N.ar    1  UNL1       -0.2311
     27 C         142.9285  138.7878  164.2086 C.ar    1  UNL1        0.1472
     28 C         142.8427  138.2694  165.6136 C.ar    1  UNL1        0.0383
     29 C         142.7783  139.2293  166.7645 C.ar    1  UNL1        0.0160
     30 C         142.7997  140.7075  166.5104 C.ar    1  UNL1        0.0753
     31 CL        142.7353  141.6674  167.6613 Cl      1  UNL1       -0.0807
     32 C         142.8855  141.2258  165.1054 C.ar    1  UNL1        0.0925
     33 N         142.9499  140.2660  163.9546 N.ar    1  UNL1       -0.2920
     34 C         143.0390  140.4803  162.4726 C.ar    1  UNL1        0.0577
     35 C         143.0827  141.8374  161.8351 C.3     1  UNL1        0.0627
     36 C         143.1709  142.1840  160.3783 C.3     1  UNL1        0.0784
@<TRIPOS>BOND
     1     8     9    1
     2     9    10   ar
     3    10    11   ar
     4    11    12   ar
     5    12    13   ar
     6    13     2    1
     7     2     3   ar
     8     3     4   ar
     9     4     5   ar
    10     5     1    1
    11     1    19    1
    12    19    20    1
    13    20    21    1
    14    21    22    1
    15    22    23    1
    16    23    24    1
    17    24    25    1
    18    25    26   ar
    19    26    27   ar
    20    27    28   ar
    21    28    29   ar
    22    29    30   ar
    23    30    31    1
    24    30    32   ar
    25    32    33   ar
    26    33    34   ar
    27    34    35    1
    28    35    36    1
    29     5     6   ar
    30     6     7    1
    31    13    14   ar
    32    14    15   ar
    33    15    16   ar
    34    16    17   ar
    35    17    18   ar
    36    18     9   ar
    37    17    12   ar
    38     6     2   ar
    39    36    22    1
    40    34    25   ar
    41    33    27   ar
