@<TRIPOS>MOLECULE
*****
 33 37 0 0 0
SMALL
GASTEIGER

@<TRIPOS>ATOM
      1 O         144.0192  144.9844  162.4712 O.2     1  UNL1       -0.2665
      2 C         143.9664  143.4940  162.3097 C.ar    1  UNL1        0.2679
      3 C         144.7513  142.6113  163.2341 C.ar    1  UNL1        0.0980
      4 C         144.6986  141.1209  163.0726 C.ar    1  UNL1        0.1453
      5 C         143.8609  140.5133  161.9868 C.ar    1  UNL1        0.0561
      6 C         143.0759  141.3961  161.0624 C.ar    1  UNL1        0.0860
      7 N         143.1286  142.8865  161.2238 N.ar    1  UNL1       -0.2729
      8 C         142.3437  143.7693  160.2995 C.ar    1  UNL1        0.0671
      9 C         141.1737  144.5497  160.8212 C.ar    1  UNL1        0.0207
     10 C         140.3888  145.4324  159.8968 C.ar    1  UNL1        0.0384
     11 C         140.7738  145.5349  158.4506 C.ar    1  UNL1        0.1387
     12 C         141.9438  144.7545  157.9289 C.ar    1  UNL1        0.0384
     13 C         142.7287  143.8717  158.8534 C.ar    1  UNL1        0.0207
     14 O         139.9889  146.4177  157.5263 O.3     1  UNL1       -0.4740
     15 C         140.2957  146.4274  156.0580 C.3     1  UNL1        0.2226
     16 C         139.3394  147.0683  155.0962 C.3     1  UNL1        0.1200
     17 N         139.2132  148.5621  155.0474 N.3     1  UNL1       -0.2696
     18 C         139.8274  149.4657  154.0197 C.3     1  UNL1        0.0722
     19 C         139.4444  150.8768  154.3548 C.3     1  UNL1        0.0188
     20 C         138.5934  150.8453  155.5896 C.3     1  UNL1        0.0188
     21 C         138.4505  149.4147  156.0178 C.3     1  UNL1        0.0722
     22 O         145.4835  140.2381  163.9970 O.3     1  UNL1       -0.4704
     23 C         144.7989  139.1232  164.7307 C.3     1  UNL1        0.2320
     24 C         143.4059  139.3136  165.2535 C.ar    1  UNL1        0.0212
     25 C         143.1009  140.4558  166.1767 C.ar    1  UNL1       -0.0007
     26 C         141.7080  140.6463  166.6996 C.ar    1  UNL1       -0.0002
     27 C         140.6199  139.6945  166.2993 C.ar    1  UNL1       -0.0000
     28 C         139.2270  139.8849  166.8222 C.ar    1  UNL1       -0.0000
     29 C         138.1390  138.9331  166.4218 C.ar    1  UNL1       -0.0000
     30 C         138.4439  137.7909  165.4986 C.ar    1  UNL1       -0.0000
     31 C         139.8369  137.6005  164.9757 C.ar    1  UNL1       -0.0000
     32 C         140.9249  138.5522  165.3761 C.ar    1  UNL1       -0.0002
     33 C         142.3179  138.3618  164.8532 C.ar    1  UNL1       -0.0007
@<TRIPOS>BOND
     1     1     2    2
     2     2     3   ar
     3     3     4   ar
     4     4    22    1
     5    22    23    1
     6    23    24    1
     7    24    25   ar
     8    25    26   ar
     9    26    27   ar
    10    27    28   ar
    11    28    29   ar
    12    29    30   ar
    13    30    31   ar
    14    31    32   ar
    15    32    33   ar
    16     4     5   ar
    17     5     6   ar
    18     6     7   ar
    19     7     8    1
    20     8     9   ar
    21     9    10   ar
    22    10    11   ar
    23    11    14    1
    24    14    15    1
    25    15    16    1
    26    16    17    1
    27    17    18    1
    28    18    19    1
    29    19    20    1
    30    20    21    1
    31    11    12   ar
    32    12    13   ar
    33     7     2   ar
    34    13     8   ar
    35    33    24   ar
    36    21    17    1
    37    32    27   ar
@<TRIPOS>MOLECULE
*****
 33 37 0 0 0
SMALL
GASTEIGER

@<TRIPOS>ATOM
      1 O         139.5955  137.6501  161.7939 O.2     1  UNL1       -0.2665
      2 C         139.1845  139.0651  161.5132 C.ar    1  UNL1        0.2679
      3 C         138.2416  139.7706  162.4423 C.ar    1  UNL1        0.0980
      4 C         137.8306  141.1856  162.1615 C.ar    1  UNL1        0.1453
      5 C         138.3625  141.8951  160.9517 C.ar    1  UNL1        0.0561
      6 C         139.3054  141.1896  160.0226 C.ar    1  UNL1        0.0860
      7 N         139.7164  139.7746  160.3033 N.ar    1  UNL1       -0.2729
      8 C         140.6593  139.0691  159.3742 C.ar    1  UNL1        0.0671
      9 C         140.1316  138.3815  158.1500 C.ar    1  UNL1        0.0207
     10 C         141.0745  137.6760  157.2209 C.ar    1  UNL1        0.0384
     11 C         142.5451  137.6581  157.5160 C.ar    1  UNL1        0.1387
     12 C         143.0728  138.3457  158.7403 C.ar    1  UNL1        0.0384
     13 C         142.1298  139.0512  159.6694 C.ar    1  UNL1        0.0207
     14 O         143.4880  136.9526  156.5870 O.3     1  UNL1       -0.4740
     15 C         143.0016  135.8026  155.7558 C.3     1  UNL1        0.2226
     16 C         142.5906  134.5203  156.4169 C.3     1  UNL1        0.1200
     17 N         143.6054  133.4427  156.6594 N.3     1  UNL1       -0.2696
     18 C         144.3850  133.2341  157.9239 C.3     1  UNL1        0.0722
     19 C         145.2802  132.0470  157.7260 C.3     1  UNL1        0.0188
     20 C         145.0541  131.5218  156.3393 C.3     1  UNL1        0.0188
     21 C         144.0190  132.3844  155.6800 C.3     1  UNL1        0.0722
     22 O         136.8878  141.8911  163.0906 O.3     1  UNL1       -0.4704
     23 C         137.4264  142.7171  164.2209 C.3     1  UNL1        0.2320
     24 C         138.8221  143.2625  164.1525 C.ar    1  UNL1        0.0212
     25 C         139.1050  144.5017  163.3561 C.ar    1  UNL1       -0.0007
     26 C         140.5006  145.0470  163.2877 C.ar    1  UNL1       -0.0002
     27 C         141.6135  144.3531  164.0157 C.ar    1  UNL1       -0.0000
     28 C         143.0092  144.8985  163.9473 C.ar    1  UNL1       -0.0000
     29 C         144.1220  144.2046  164.6754 C.ar    1  UNL1       -0.0000
     30 C         143.8392  142.9654  165.4719 C.ar    1  UNL1       -0.0000
     31 C         142.4435  142.4200  165.5403 C.ar    1  UNL1       -0.0000
     32 C         141.3307  143.1139  164.8122 C.ar    1  UNL1       -0.0002
     33 C         139.9350  142.5686  164.8806 C.ar    1  UNL1       -0.0007
@<TRIPOS>BOND
     1     1     2    2
     2     2     3   ar
     3     3     4   ar
     4     4    22    1
     5    22    23    1
     6    23    24    1
     7    24    25   ar
     8    25    26   ar
     9    26    27   ar
    10    27    28   ar
    11    28    29   ar
    12    29    30   ar
    13    30    31   ar
    14    31    32   ar
    15    32    33   ar
    16     4     5   ar
    17     5     6   ar
    18     6     7   ar
    19     7     8    1
    20     8     9   ar
    21     9    10   ar
    22    10    11   ar
    23    11    14    1
    24    14    15    1
    25    15    16    1
    26    16    17    1
    27    17    18    1
    28    18    19    1
    29    19    20    1
    30    20    21    1
    31    11    12   ar
    32    12    13   ar
    33     7     2   ar
    34    13     8   ar
    35    33    24   ar
    36    21    17    1
    37    32    27   ar
@<TRIPOS>MOLECULE
*****
 33 37 0 0 0
SMALL
GASTEIGER

@<TRIPOS>ATOM
      1 O         139.7325  137.5831  161.9256 O.2     1  UNL1       -0.2665
      2 C         139.2547  138.9680  161.6036 C.ar    1  UNL1        0.2679
      3 C         138.3669  139.6981  162.5673 C.ar    1  UNL1        0.0980
      4 C         137.8891  141.0830  162.2453 C.ar    1  UNL1        0.1453
      5 C         138.2990  141.7378  160.9595 C.ar    1  UNL1        0.0561
      6 C         139.1868  141.0077  159.9957 C.ar    1  UNL1        0.0860
      7 N         139.6646  139.6228  160.3178 N.ar    1  UNL1       -0.2729
      8 C         140.5524  138.8927  159.3541 C.ar    1  UNL1        0.0671
      9 C         142.0110  138.7221  159.6596 C.ar    1  UNL1        0.0207
     10 C         142.8988  137.9920  158.6959 C.ar    1  UNL1        0.0384
     11 C         142.3279  137.4324  157.4266 C.ar    1  UNL1        0.1387
     12 C         140.8693  137.6030  157.1210 C.ar    1  UNL1        0.0384
     13 C         139.9815  138.3331  158.0848 C.ar    1  UNL1        0.0207
     14 O         143.2157  136.7023  156.4629 O.3     1  UNL1       -0.4740
     15 C         142.6487  135.6189  155.5941 C.3     1  UNL1        0.2226
     16 C         142.3426  134.2718  156.1787 C.3     1  UNL1        0.1200
     17 N         143.4599  133.3318  156.5224 N.3     1  UNL1       -0.2696
     18 C         143.9991  132.2439  155.6417 C.3     1  UNL1        0.0722
     19 C         145.1067  131.5544  156.3820 C.3     1  UNL1        0.0188
     20 C         145.2519  132.2163  157.7202 C.3     1  UNL1        0.0188
     21 C         144.2342  133.3148  157.8070 C.3     1  UNL1        0.0722
     22 O         137.0013  141.8131  163.2090 O.3     1  UNL1       -0.4704
     23 C         137.5730  142.8806  164.0943 C.3     1  UNL1        0.2320
     24 C         139.0027  142.7984  164.5409 C.ar    1  UNL1        0.0212
     25 C         139.4159  141.7651  165.5467 C.ar    1  UNL1       -0.0007
     26 C         140.8455  141.6829  165.9934 C.ar    1  UNL1       -0.0002
     27 C         141.8619  142.6339  165.4343 C.ar    1  UNL1       -0.0000
     28 C         143.2914  142.5517  165.8809 C.ar    1  UNL1       -0.0000
     29 C         144.3077  143.5027  165.3218 C.ar    1  UNL1       -0.0000
     30 C         143.8945  144.5360  164.3161 C.ar    1  UNL1       -0.0000
     31 C         142.4649  144.6182  163.8694 C.ar    1  UNL1       -0.0000
     32 C         141.4486  143.6672  164.4285 C.ar    1  UNL1       -0.0002
     33 C         140.0190  143.7494  163.9818 C.ar    1  UNL1       -0.0007
@<TRIPOS>BOND
     1     1     2    2
     2     2     3   ar
     3     3     4   ar
     4     4    22    1
     5    22    23    1
     6    23    24    1
     7    24    25   ar
     8    25    26   ar
     9    26    27   ar
    10    27    28   ar
    11    28    29   ar
    12    29    30   ar
    13    30    31   ar
    14    31    32   ar
    15    32    33   ar
    16     4     5   ar
    17     5     6   ar
    18     6     7   ar
    19     7     8    1
    20     8     9   ar
    21     9    10   ar
    22    10    11   ar
    23    11    14    1
    24    14    15    1
    25    15    16    1
    26    16    17    1
    27    17    18    1
    28    18    19    1
    29    19    20    1
    30    20    21    1
    31    11    12   ar
    32    12    13   ar
    33     7     2   ar
    34    13     8   ar
    35    33    24   ar
    36    21    17    1
    37    32    27   ar
@<TRIPOS>MOLECULE
*****
 33 37 0 0 0
SMALL
GASTEIGER

@<TRIPOS>ATOM
      1 O         142.7083  138.2212  161.9914 O.2     1  UNL1       -0.2665
      2 C         141.8588  138.2867  160.7568 C.ar    1  UNL1        0.2679
      3 C         142.4847  138.1082  159.4054 C.ar    1  UNL1        0.0980
      4 C         141.6352  138.1737  158.1709 C.ar    1  UNL1        0.1453
      5 C         140.1598  138.4177  158.2877 C.ar    1  UNL1        0.0561
      6 C         139.5339  138.5962  159.6392 C.ar    1  UNL1        0.0860
      7 N         140.3833  138.5307  160.8738 N.ar    1  UNL1       -0.2729
      8 C         139.7574  138.7092  162.2252 C.ar    1  UNL1        0.0671
      9 C         139.5907  137.5293  163.1362 C.ar    1  UNL1        0.0207
     10 C         138.9648  137.7078  164.4876 C.ar    1  UNL1        0.0384
     11 C         138.5056  139.0662  164.9280 C.ar    1  UNL1        0.1387
     12 C         138.6723  140.2461  164.0170 C.ar    1  UNL1        0.0384
     13 C         139.2983  140.0675  162.6655 C.ar    1  UNL1        0.0207
     14 O         137.8797  139.2447  166.2794 O.3     1  UNL1       -0.4740
     15 C         138.7472  139.3962  167.4937 C.3     1  UNL1        0.2226
     16 C         139.9688  140.2650  167.4390 C.3     1  UNL1        0.1200
     17 N         140.1628  141.3511  168.4552 N.3     1  UNL1       -0.2696
     18 C         140.4135  142.8002  168.1599 C.3     1  UNL1        0.0722
     19 C         140.5457  143.5236  169.4672 C.3     1  UNL1        0.0188
     20 C         140.3767  142.5216  170.5706 C.3     1  UNL1        0.0188
     21 C         140.1400  141.1789  169.9451 C.3     1  UNL1        0.0722
     22 O         142.2611  137.9953  156.8195 O.3     1  UNL1       -0.4704
     23 C         141.6973  136.9910  155.8585 C.3     1  UNL1        0.2320
     24 C         142.3188  135.6305  155.7450 C.ar    1  UNL1        0.0212
     25 C         142.1542  134.8335  154.4849 C.ar    1  UNL1       -0.0007
     26 C         142.7757  133.4731  154.3713 C.ar    1  UNL1       -0.0002
     27 C         143.5617  132.9095  155.5179 C.ar    1  UNL1       -0.0000
     28 C         144.1832  131.5491  155.4044 C.ar    1  UNL1       -0.0000
     29 C         144.9692  130.9855  156.5509 C.ar    1  UNL1       -0.0000
     30 C         145.1337  131.7825  157.8110 C.ar    1  UNL1       -0.0000
     31 C         144.5123  133.1429  157.9246 C.ar    1  UNL1       -0.0000
     32 C         143.7263  133.7064  156.7780 C.ar    1  UNL1       -0.0002
     33 C         143.1048  135.0669  156.8915 C.ar    1  UNL1       -0.0007
@<TRIPOS>BOND
     1     1     2    2
     2     2     3   ar
     3     3     4   ar
     4     4    22    1
     5    22    23    1
     6    23    24    1
     7    24    25   ar
     8    25    26   ar
     9    26    27   ar
    10    27    28   ar
    11    28    29   ar
    12    29    30   ar
    13    30    31   ar
    14    31    32   ar
    15    32    33   ar
    16     4     5   ar
    17     5     6   ar
    18     6     7   ar
    19     7     8    1
    20     8     9   ar
    21     9    10   ar
    22    10    11   ar
    23    11    14    1
    24    14    15    1
    25    15    16    1
    26    16    17    1
    27    17    18    1
    28    18    19    1
    29    19    20    1
    30    20    21    1
    31    11    12   ar
    32    12    13   ar
    33     7     2   ar
    34    13     8   ar
    35    33    24   ar
    36    21    17    1
    37    32    27   ar
@<TRIPOS>MOLECULE
*****
 33 37 0 0 0
SMALL
GASTEIGER

@<TRIPOS>ATOM
      1 O         143.2047  138.0278  161.8937 O.2     1  UNL1       -0.2665
      2 C         142.2860  138.1215  160.7117 C.ar    1  UNL1        0.2679
      3 C         142.8119  137.8643  159.3307 C.ar    1  UNL1        0.0980
      4 C         141.8932  137.9581  158.1487 C.ar    1  UNL1        0.1453
      5 C         140.4485  138.3089  158.3477 C.ar    1  UNL1        0.0561
      6 C         139.9224  138.5661  159.7288 C.ar    1  UNL1        0.0860
      7 N         140.8412  138.4724  160.9108 N.ar    1  UNL1       -0.2729
      8 C         140.3152  138.7295  162.2918 C.ar    1  UNL1        0.0671
      9 C         139.9555  137.5784  163.1837 C.ar    1  UNL1        0.0207
     10 C         139.4295  137.8356  164.5647 C.ar    1  UNL1        0.0384
     11 C         139.2632  139.2439  165.0538 C.ar    1  UNL1        0.1387
     12 C         139.6229  140.3950  164.1618 C.ar    1  UNL1        0.0384
     13 C         140.1489  140.1378  162.7808 C.ar    1  UNL1        0.0207
     14 O         138.7372  139.5010  166.4348 O.3     1  UNL1       -0.4740
     15 C         139.5795  140.2389  167.4328 C.3     1  UNL1        0.2226
     16 C         141.0417  139.9277  167.5561 C.3     1  UNL1        0.1200
     17 N         142.0456  140.7177  166.7699 N.3     1  UNL1       -0.2696
     18 C         142.9776  140.1717  165.7291 C.3     1  UNL1        0.0722
     19 C         143.8017  141.3090  165.2024 C.3     1  UNL1        0.0188
     20 C         143.3790  142.5579  165.9177 C.3     1  UNL1        0.0188
     21 C         142.2937  142.1925  166.8865 C.3     1  UNL1        0.0722
     22 O         142.4192  137.7009  156.7678 O.3     1  UNL1       -0.4704
     23 C         141.7482  136.6900  155.8858 C.3     1  UNL1        0.2320
     24 C         142.0912  135.2355  156.0164 C.ar    1  UNL1        0.0212
     25 C         141.2892  134.2064  155.2763 C.ar    1  UNL1       -0.0007
     26 C         141.6322  132.7521  155.4069 C.ar    1  UNL1       -0.0002
     27 C         142.7772  132.3267  156.2777 C.ar    1  UNL1       -0.0000
     28 C         143.1201  130.8723  156.4083 C.ar    1  UNL1       -0.0000
     29 C         144.2651  130.4470  157.2790 C.ar    1  UNL1       -0.0000
     30 C         145.0671  131.4761  158.0191 C.ar    1  UNL1       -0.0000
     31 C         144.7241  132.9305  157.8885 C.ar    1  UNL1       -0.0000
     32 C         143.5792  133.3558  157.0178 C.ar    1  UNL1       -0.0002
     33 C         143.2362  134.8102  156.8872 C.ar    1  UNL1       -0.0007
@<TRIPOS>BOND
     1     1     2    2
     2     2     3   ar
     3     3     4   ar
     4     4    22    1
     5    22    23    1
     6    23    24    1
     7    24    25   ar
     8    25    26   ar
     9    26    27   ar
    10    27    28   ar
    11    28    29   ar
    12    29    30   ar
    13    30    31   ar
    14    31    32   ar
    15    32    33   ar
    16     4     5   ar
    17     5     6   ar
    18     6     7   ar
    19     7     8    1
    20     8     9   ar
    21     9    10   ar
    22    10    11   ar
    23    11    14    1
    24    14    15    1
    25    15    16    1
    26    16    17    1
    27    17    18    1
    28    18    19    1
    29    19    20    1
    30    20    21    1
    31    11    12   ar
    32    12    13   ar
    33     7     2   ar
    34    13     8   ar
    35    33    24   ar
    36    21    17    1
    37    32    27   ar
@<TRIPOS>MOLECULE
*****
 33 37 0 0 0
SMALL
GASTEIGER

@<TRIPOS>ATOM
      1 O         139.8067  145.6993  161.9919 O.2     1  UNL1       -0.2665
      2 C         141.0429  144.8654  162.1546 C.ar    1  UNL1        0.2679
      3 C         141.6398  144.6669  163.5163 C.ar    1  UNL1        0.0980
      4 C         142.8760  143.8330  163.6790 C.ar    1  UNL1        0.1453
      5 C         143.5153  143.1977  162.4800 C.ar    1  UNL1        0.0561
      6 C         142.9184  143.3962  161.1182 C.ar    1  UNL1        0.0860
      7 N         141.6822  144.2301  160.9555 N.ar    1  UNL1       -0.2729
      8 C         141.0853  144.4286  159.5938 C.ar    1  UNL1        0.0671
      9 C         140.0395  143.4799  159.0877 C.ar    1  UNL1        0.0207
     10 C         139.4426  143.6784  157.7261 C.ar    1  UNL1        0.0384
     11 C         139.8915  144.8258  156.8704 C.ar    1  UNL1        0.1387
     12 C         140.9373  145.7745  157.3765 C.ar    1  UNL1        0.0384
     13 C         141.5342  145.5759  158.7382 C.ar    1  UNL1        0.0207
     14 O         139.2946  145.0243  155.5087 O.3     1  UNL1       -0.4740
     15 C         138.4340  146.2218  155.2344 C.3     1  UNL1        0.2226
     16 C         139.0602  147.5077  154.7819 C.3     1  UNL1        0.1200
     17 N         138.8737  148.7577  155.5899 N.3     1  UNL1       -0.2696
     18 C         138.4828  148.8223  157.0366 C.3     1  UNL1        0.0722
     19 C         138.4129  150.2671  157.4338 C.3     1  UNL1        0.0188
     20 C         138.7606  151.0954  156.2325 C.3     1  UNL1        0.0188
     21 C         139.0454  150.1626  155.0928 C.3     1  UNL1        0.0722
     22 O         143.4729  143.6345  165.0407 O.3     1  UNL1       -0.4704
     23 C         143.8729  142.2608  165.4912 C.3     1  UNL1        0.2320
     24 C         142.9188  141.1135  165.3374 C.ar    1  UNL1        0.0212
     25 C         143.3544  139.8658  164.6279 C.ar    1  UNL1       -0.0007
     26 C         142.4004  138.7186  164.4740 C.ar    1  UNL1       -0.0002
     27 C         141.0107  138.8191  165.0295 C.ar    1  UNL1       -0.0000
     28 C         140.0567  137.6719  164.8756 C.ar    1  UNL1       -0.0000
     29 C         138.6670  137.7724  165.4311 C.ar    1  UNL1       -0.0000
     30 C         138.2313  139.0202  166.1405 C.ar    1  UNL1       -0.0000
     31 C         139.1853  140.1674  166.2944 C.ar    1  UNL1       -0.0000
     32 C         140.5750  140.0668  165.7389 C.ar    1  UNL1       -0.0002
     33 C         141.5291  141.2141  165.8928 C.ar    1  UNL1       -0.0007
@<TRIPOS>BOND
     1     1     2    2
     2     2     3   ar
     3     3     4   ar
     4     4    22    1
     5    22    23    1
     6    23    24    1
     7    24    25   ar
     8    25    26   ar
     9    26    27   ar
    10    27    28   ar
    11    28    29   ar
    12    29    30   ar
    13    30    31   ar
    14    31    32   ar
    15    32    33   ar
    16     4     5   ar
    17     5     6   ar
    18     6     7   ar
    19     7     8    1
    20     8     9   ar
    21     9    10   ar
    22    10    11   ar
    23    11    14    1
    24    14    15    1
    25    15    16    1
    26    16    17    1
    27    17    18    1
    28    18    19    1
    29    19    20    1
    30    20    21    1
    31    11    12   ar
    32    12    13   ar
    33     7     2   ar
    34    13     8   ar
    35    33    24   ar
    36    21    17    1
    37    32    27   ar
@<TRIPOS>MOLECULE
*****
 33 37 0 0 0
SMALL
GASTEIGER

@<TRIPOS>ATOM
      1 O         144.4127  139.4088  161.4313 O.2     1  UNL1       -0.2665
      2 C         143.4548  138.8201  162.4242 C.ar    1  UNL1        0.2679
      3 C         143.7653  138.8773  163.8906 C.ar    1  UNL1        0.0980
      4 C         142.8075  138.2886  164.8836 C.ar    1  UNL1        0.1453
      5 C         141.5392  137.6427  164.4102 C.ar    1  UNL1        0.0561
      6 C         141.2286  137.5855  162.9437 C.ar    1  UNL1        0.0860
      7 N         142.1864  138.1742  161.9508 N.ar    1  UNL1       -0.2729
      8 C         141.8759  138.1171  160.4844 C.ar    1  UNL1        0.0671
      9 C         142.8720  137.5294  159.5292 C.ar    1  UNL1        0.0207
     10 C         142.5615  137.4723  158.0628 C.ar    1  UNL1        0.0384
     11 C         141.2549  138.0028  157.5516 C.ar    1  UNL1        0.1387
     12 C         140.2588  138.5905  158.5068 C.ar    1  UNL1        0.0384
     13 C         140.5693  138.6476  159.9733 C.ar    1  UNL1        0.0207
     14 O         140.9443  137.9457  156.0852 O.3     1  UNL1       -0.4740
     15 C         142.0483  138.0821  155.0789 C.3     1  UNL1        0.2226
     16 C         142.5144  136.8817  154.3095 C.3     1  UNL1        0.1200
     17 N         142.6392  135.5535  154.9952 N.3     1  UNL1       -0.2696
     18 C         143.8845  134.9967  155.6190 C.3     1  UNL1        0.0722
     19 C         143.5555  133.6479  156.1868 C.3     1  UNL1        0.0188
     20 C         142.1067  133.3710  155.9140 C.3     1  UNL1        0.0188
     21 C         141.5403  134.5487  155.1776 C.3     1  UNL1        0.0722
     22 O         143.1180  138.3457  166.3499 O.3     1  UNL1       -0.4704
     23 C         142.7571  139.5647  167.1460 C.3     1  UNL1        0.2320
     24 C         142.2928  140.8074  166.4459 C.ar    1  UNL1        0.0212
     25 C         140.8276  141.1166  166.3596 C.ar    1  UNL1       -0.0007
     26 C         140.3632  142.3592  165.6594 C.ar    1  UNL1       -0.0002
     27 C         141.3642  143.2927  165.0456 C.ar    1  UNL1       -0.0000
     28 C         140.8999  144.5354  164.3455 C.ar    1  UNL1       -0.0000
     29 C         141.9008  145.4688  163.7316 C.ar    1  UNL1       -0.0000
     30 C         143.3660  145.1596  163.8179 C.ar    1  UNL1       -0.0000
     31 C         143.8303  143.9170  164.5181 C.ar    1  UNL1       -0.0000
     32 C         142.8294  142.9835  165.1319 C.ar    1  UNL1       -0.0002
     33 C         143.2937  141.7408  165.8321 C.ar    1  UNL1       -0.0007
@<TRIPOS>BOND
     1     1     2    2
     2     2     3   ar
     3     3     4   ar
     4     4    22    1
     5    22    23    1
     6    23    24    1
     7    24    25   ar
     8    25    26   ar
     9    26    27   ar
    10    27    28   ar
    11    28    29   ar
    12    29    30   ar
    13    30    31   ar
    14    31    32   ar
    15    32    33   ar
    16     4     5   ar
    17     5     6   ar
    18     6     7   ar
    19     7     8    1
    20     8     9   ar
    21     9    10   ar
    22    10    11   ar
    23    11    14    1
    24    14    15    1
    25    15    16    1
    26    16    17    1
    27    17    18    1
    28    18    19    1
    29    19    20    1
    30    20    21    1
    31    11    12   ar
    32    12    13   ar
    33     7     2   ar
    34    13     8   ar
    35    33    24   ar
    36    21    17    1
    37    32    27   ar
@<TRIPOS>MOLECULE
*****
 33 37 0 0 0
SMALL
GASTEIGER

@<TRIPOS>ATOM
      1 O         143.4945  141.7433  167.3846 O.2     1  UNL1       -0.2665
      2 C         142.7015  142.5364  166.3884 C.ar    1  UNL1        0.2679
      3 C         143.4057  143.2980  165.3049 C.ar    1  UNL1        0.0980
      4 C         142.6128  144.0911  164.3088 C.ar    1  UNL1        0.1453
      5 C         141.1157  144.1225  164.3962 C.ar    1  UNL1        0.0561
      6 C         140.4114  143.3609  165.4797 C.ar    1  UNL1        0.0860
      7 N         141.2044  142.5678  166.4758 N.ar    1  UNL1       -0.2729
      8 C         140.5002  141.8062  167.5594 C.ar    1  UNL1        0.0671
      9 C         140.4379  142.3650  168.9500 C.ar    1  UNL1        0.0207
     10 C         139.7338  141.6034  170.0335 C.ar    1  UNL1        0.0384
     11 C         139.0918  140.2828  169.7264 C.ar    1  UNL1        0.1387
     12 C         139.1542  139.7240  168.3358 C.ar    1  UNL1        0.0384
     13 C         139.8584  140.4857  167.2522 C.ar    1  UNL1        0.0207
     14 O         138.3877  139.5212  170.8099 O.3     1  UNL1       -0.4740
     15 C         136.8964  139.6123  170.9430 C.3     1  UNL1        0.2226
     16 C         136.0603  138.3685  170.8787 C.3     1  UNL1        0.1200
     17 N         135.8680  137.5297  172.1073 N.3     1  UNL1       -0.2696
     18 C         134.7366  137.6450  173.0854 C.3     1  UNL1        0.0722
     19 C         134.9426  136.6149  174.1561 C.3     1  UNL1        0.0188
     20 C         136.2014  135.8630  173.8398 C.3     1  UNL1        0.0188
     21 C         136.7734  136.4283  172.5736 C.3     1  UNL1        0.0722
     22 O         143.3169  144.8527  163.2253 O.3     1  UNL1       -0.4704
     23 C         144.0890  144.1162  162.1710 C.3     1  UNL1        0.2320
     24 C         143.9979  142.6216  162.0813 C.ar    1  UNL1        0.0212
     25 C         144.9421  141.7639  162.8706 C.ar    1  UNL1       -0.0007
     26 C         144.8510  140.2694  162.7809 C.ar    1  UNL1       -0.0002
     27 C         143.8156  139.6325  161.9019 C.ar    1  UNL1       -0.0000
     28 C         143.7245  138.1380  161.8123 C.ar    1  UNL1       -0.0000
     29 C         142.6892  137.5011  160.9333 C.ar    1  UNL1       -0.0000
     30 C         141.7450  138.3588  160.1441 C.ar    1  UNL1       -0.0000
     31 C         141.8361  139.8533  160.2338 C.ar    1  UNL1       -0.0000
     32 C         142.8714  140.4901  161.1127 C.ar    1  UNL1       -0.0002
     33 C         142.9626  141.9847  161.2024 C.ar    1  UNL1       -0.0007
@<TRIPOS>BOND
     1     1     2    2
     2     2     3   ar
     3     3     4   ar
     4     4    22    1
     5    22    23    1
     6    23    24    1
     7    24    25   ar
     8    25    26   ar
     9    26    27   ar
    10    27    28   ar
    11    28    29   ar
    12    29    30   ar
    13    30    31   ar
    14    31    32   ar
    15    32    33   ar
    16     4     5   ar
    17     5     6   ar
    18     6     7   ar
    19     7     8    1
    20     8     9   ar
    21     9    10   ar
    22    10    11   ar
    23    11    14    1
    24    14    15    1
    25    15    16    1
    26    16    17    1
    27    17    18    1
    28    18    19    1
    29    19    20    1
    30    20    21    1
    31    11    12   ar
    32    12    13   ar
    33     7     2   ar
    34    13     8   ar
    35    33    24   ar
    36    21    17    1
    37    32    27   ar
@<TRIPOS>MOLECULE
*****
 33 37 0 0 0
SMALL
GASTEIGER

@<TRIPOS>ATOM
      1 O         138.6495  139.0353  159.9691 O.2     1  UNL1       -0.2665
      2 C         140.0891  138.6188  159.9047 C.ar    1  UNL1        0.2679
      3 C         140.7500  138.4076  158.5748 C.ar    1  UNL1        0.0980
      4 C         142.1895  137.9911  158.5104 C.ar    1  UNL1        0.1453
      5 C         142.9682  137.7857  159.7759 C.ar    1  UNL1        0.0561
      6 C         142.3074  137.9968  161.1059 C.ar    1  UNL1        0.0860
      7 N         140.8678  138.4134  161.1703 N.ar    1  UNL1       -0.2729
      8 C         140.2069  138.6245  162.5001 C.ar    1  UNL1        0.0671
      9 C         139.8206  140.0073  162.9346 C.ar    1  UNL1        0.0207
     10 C         139.1597  140.2184  164.2644 C.ar    1  UNL1        0.0384
     11 C         138.8851  139.0468  165.1600 C.ar    1  UNL1        0.1387
     12 C         139.2714  137.6640  164.7255 C.ar    1  UNL1        0.0384
     13 C         139.9323  137.4529  163.3956 C.ar    1  UNL1        0.0207
     14 O         138.2242  139.2579  166.4898 O.3     1  UNL1       -0.4740
     15 C         139.0332  139.7241  167.6638 C.3     1  UNL1        0.2226
     16 C         140.5167  139.9014  167.5294 C.3     1  UNL1        0.1200
     17 N         141.2084  141.0136  168.2605 N.3     1  UNL1       -0.2696
     18 C         142.6917  141.1942  168.3914 C.3     1  UNL1        0.0722
     19 C         142.9382  142.4328  169.2008 C.3     1  UNL1        0.0188
     20 C         141.6073  143.0177  169.5702 C.3     1  UNL1        0.0188
     21 C         140.5381  142.1406  168.9891 C.3     1  UNL1        0.0722
     22 O         142.8504  137.7799  157.1806 O.3     1  UNL1       -0.4704
     23 C         142.2362  136.8495  156.1771 C.3     1  UNL1        0.2320
     24 C         142.4413  135.3689  156.3033 C.ar    1  UNL1        0.0212
     25 C         143.4762  134.8329  157.2477 C.ar    1  UNL1       -0.0007
     26 C         143.6813  133.3524  157.3739 C.ar    1  UNL1       -0.0002
     27 C         142.8515  132.4078  156.5559 C.ar    1  UNL1       -0.0000
     28 C         143.0566  130.9273  156.6821 C.ar    1  UNL1       -0.0000
     29 C         142.2268  129.9827  155.8641 C.ar    1  UNL1       -0.0000
     30 C         141.1919  130.5187  154.9198 C.ar    1  UNL1       -0.0000
     31 C         140.9868  131.9992  154.7935 C.ar    1  UNL1       -0.0000
     32 C         141.8166  132.9437  155.6115 C.ar    1  UNL1       -0.0002
     33 C         141.6115  134.4243  155.4853 C.ar    1  UNL1       -0.0007
@<TRIPOS>BOND
     1     1     2    2
     2     2     3   ar
     3     3     4   ar
     4     4    22    1
     5    22    23    1
     6    23    24    1
     7    24    25   ar
     8    25    26   ar
     9    26    27   ar
    10    27    28   ar
    11    28    29   ar
    12    29    30   ar
    13    30    31   ar
    14    31    32   ar
    15    32    33   ar
    16     4     5   ar
    17     5     6   ar
    18     6     7   ar
    19     7     8    1
    20     8     9   ar
    21     9    10   ar
    22    10    11   ar
    23    11    14    1
    24    14    15    1
    25    15    16    1
    26    16    17    1
    27    17    18    1
    28    18    19    1
    29    19    20    1
    30    20    21    1
    31    11    12   ar
    32    12    13   ar
    33     7     2   ar
    34    13     8   ar
    35    33    24   ar
    36    21    17    1
    37    32    27   ar
