@<TRIPOS>MOLECULE
*****
 36 39 0 0 0
SMALL
GASTEIGER

@<TRIPOS>ATOM
      1 C         138.6685  139.6698  167.6880 C.2     1  UNL1        0.2470
      2 O         137.6709  138.7628  168.3454 O.2     1  UNL1       -0.2701
      3 N         139.5911  140.5033  168.5270 N.am    1  UNL1       -0.3008
      4 H         140.2459  141.0986  168.0956 H       1  UNL1        0.1497
      5 N         138.7617  139.1139  163.8477 N.ar    1  UNL1       -0.3293
      6 C         138.9556  140.5990  163.9304 C.ar    1  UNL1        0.0777
      7 C         138.9443  140.9880  165.3790 C.ar    1  UNL1        0.0243
      8 C         138.7434  139.7433  166.1917 C.ar    1  UNL1        0.0665
      9 C         138.6305  138.5850  165.2453 C.ar    1  UNL1        0.0418
     10 C         138.4229  137.1499  165.6290 C.3     1  UNL1        0.0502
     11 C         139.1303  141.5314  162.7684 C.ar    1  UNL1        0.0970
     12 C         138.2016  142.6966  162.5956 C.ar    1  UNL1        0.0206
     13 C         138.3763  143.6289  161.4337 C.ar    1  UNL1        0.0032
     14 C         139.4796  143.3961  160.4445 C.ar    1  UNL1        0.0207
     15 C         140.4082  142.2309  160.6173 C.ar    1  UNL1        0.0989
     16 N         140.2336  141.2986  161.7792 N.ar    1  UNL1       -0.2424
     17 C         138.7083  138.3004  162.5886 C.3     1  UNL1        0.1058
     18 C         141.2765  137.9296  162.7174 C.3     1  UNL1        0.0021
     19 C         139.9606  137.6820  162.0415 C.3     1  UNL1        0.0245
     20 C         139.5162  140.4298  170.0233 C.3     1  UNL1        0.0911
     21 C         140.7733  140.3036  170.8319 C.3     1  UNL1        0.0386
     22 C         142.0319  139.8023  170.1883 C.3     1  UNL1        0.0739
     23 N         142.4607  140.3440  168.8568 N.3     1  UNL1       -0.2697
     24 C         142.8643  141.7828  168.7274 C.3     1  UNL1        0.0938
     25 C         143.2931  142.3247  167.3959 C.3     1  UNL1        0.1081
     26 N         143.3183  141.4276  166.1940 N.pl3   1  UNL1       -0.3040
     27 C         142.9146  139.9888  166.3236 C.3     1  UNL1        0.1081
     28 C         142.4858  139.4470  167.6549 C.3     1  UNL1        0.0938
     29 C         143.7471  141.9694  164.8626 C.ar    1  UNL1        0.0594
     30 C         145.0245  141.4946  164.2359 C.ar    1  UNL1        0.0154
     31 C         145.4533  142.0364  162.9045 C.ar    1  UNL1        0.0022
     32 C         144.6046  143.0529  162.1999 C.ar    1  UNL1        0.0123
     33 C         143.3272  143.5277  162.8266 C.ar    1  UNL1        0.0694
     34 CL        142.4787  144.5442  162.1220 Cl      1  UNL1       -0.0813
     35 C         142.8984  142.9859  164.1580 C.ar    1  UNL1        0.0815
     36 CL        141.6210  143.4606  164.7848 Cl      1  UNL1       -0.0801
@<TRIPOS>BOND
     1    18    19    1
     2    19    17    1
     3    17     5    1
     4     5     6   ar
     5     6    11    1
     6    11    12   ar
     7    12    13   ar
     8    13    14   ar
     9    14    15   ar
    10    15    16   ar
    11     6     7   ar
    12     7     8   ar
    13     8     1    1
    14     1     2    2
    15     1     3   am
    16     3    20    1
    17    20    21    1
    18    21    22    1
    19    22    23    1
    20    23    24    1
    21    24    25    1
    22    25    26    1
    23    26    29    1
    24    29    30   ar
    25    30    31   ar
    26    31    32   ar
    27    32    33   ar
    28    33    34    1
    29    33    35   ar
    30    35    36    1
    31    26    27    1
    32    27    28    1
    33     8     9   ar
    34     9    10    1
    35     9     5   ar
    36    16    11   ar
    37    28    23    1
    38    35    29   ar
    39     3     4    1
@<TRIPOS>MOLECULE
*****
 36 39 0 0 0
SMALL
GASTEIGER

@<TRIPOS>ATOM
      1 C         140.2153  139.3506  158.5989 C.2     1  UNL1        0.2470
      2 O         139.3715  138.4292  157.7689 O.2     1  UNL1       -0.2701
      3 N         140.8449  140.5593  157.9724 N.am    1  UNL1       -0.3008
      4 H         141.3987  141.1641  158.5172 H       1  UNL1        0.1497
      5 N         141.4805  138.4681  162.1607 N.ar    1  UNL1       -0.3293
      6 C         140.0375  138.7742  162.4332 C.ar    1  UNL1        0.0777
      7 C         139.3880  139.1420  161.1321 C.ar    1  UNL1        0.0243
      8 C         140.4294  139.0633  160.0555 C.ar    1  UNL1        0.0665
      9 C         141.7227  138.6468  160.6912 C.ar    1  UNL1        0.0418
     10 C         143.0289  138.4445  159.9819 C.3     1  UNL1        0.0502
     11 C         139.3626  138.7217  163.7718 C.ar    1  UNL1        0.0970
     12 C         139.1159  137.3996  164.4360 C.ar    1  UNL1        0.0206
     13 C         138.4410  137.3471  165.7745 C.ar    1  UNL1        0.0032
     14 C         138.0129  138.6167  166.4489 C.ar    1  UNL1        0.0207
     15 C         138.2597  139.9388  165.7848 C.ar    1  UNL1        0.0989
     16 N         138.9345  139.9913  164.4462 N.ar    1  UNL1       -0.2424
     17 C         142.5018  138.0558  163.1789 C.3     1  UNL1        0.1058
     18 C         144.4447  139.7694  163.3767 C.3     1  UNL1        0.0021
     19 C         143.2396  139.0981  163.9658 C.3     1  UNL1        0.0245
     20 C         140.6308  140.8466  156.5158 C.3     1  UNL1        0.0911
     21 C         140.2781  142.2344  156.0691 C.3     1  UNL1        0.0386
     22 C         139.2087  143.0041  156.7858 C.3     1  UNL1        0.0739
     23 N         139.2706  143.1640  158.2760 N.3     1  UNL1       -0.2697
     24 C         138.3165  142.4070  159.1517 C.3     1  UNL1        0.0938
     25 C         138.3782  142.5669  160.6419 C.3     1  UNL1        0.1081
     26 N         139.3941  143.4837  161.2564 N.pl3   1  UNL1       -0.3040
     27 C         140.3481  144.2406  160.3807 C.3     1  UNL1        0.1081
     28 C         140.2863  144.0807  158.8905 C.3     1  UNL1        0.0938
     29 C         139.4558  143.6436  162.7466 C.ar    1  UNL1        0.0594
     30 C         138.4467  144.5008  163.4514 C.ar    1  UNL1        0.0154
     31 C         138.5084  144.6607  164.9415 C.ar    1  UNL1        0.0022
     32 C         139.5793  143.9633  165.7269 C.ar    1  UNL1        0.0123
     33 C         140.5885  143.1060  165.0221 C.ar    1  UNL1        0.0694
     34 CL        141.6593  142.4087  165.8075 Cl      1  UNL1       -0.0813
     35 C         140.5267  142.9462  163.5320 C.ar    1  UNL1        0.0815
     36 CL        141.5359  142.0889  162.8271 Cl      1  UNL1       -0.0801
@<TRIPOS>BOND
     1    18    19    1
     2    19    17    1
     3    17     5    1
     4     5     6   ar
     5     6    11    1
     6    11    12   ar
     7    12    13   ar
     8    13    14   ar
     9    14    15   ar
    10    15    16   ar
    11     6     7   ar
    12     7     8   ar
    13     8     1    1
    14     1     2    2
    15     1     3   am
    16     3    20    1
    17    20    21    1
    18    21    22    1
    19    22    23    1
    20    23    24    1
    21    24    25    1
    22    25    26    1
    23    26    29    1
    24    29    30   ar
    25    30    31   ar
    26    31    32   ar
    27    32    33   ar
    28    33    34    1
    29    33    35   ar
    30    35    36    1
    31    26    27    1
    32    27    28    1
    33     8     9   ar
    34     9    10    1
    35     9     5   ar
    36    16    11   ar
    37    28    23    1
    38    35    29   ar
    39     3     4    1
@<TRIPOS>MOLECULE
*****
 36 39 0 0 0
SMALL
GASTEIGER

@<TRIPOS>ATOM
      1 C         141.1946  145.3213  159.1753 C.2     1  UNL1        0.2470
      2 O         139.8331  145.9130  158.9607 O.2     1  UNL1       -0.2701
      3 N         142.1995  145.3284  158.0617 N.am    1  UNL1       -0.3008
      4 H         143.0931  144.9401  158.2026 H       1  UNL1        0.1497
      5 N         141.6247  144.2716  162.8873 N.ar    1  UNL1       -0.3293
      6 C         142.5759  143.3314  162.2081 C.ar    1  UNL1        0.0777
      7 C         142.5305  143.6102  160.7349 C.ar    1  UNL1        0.0243
      8 C         141.5514  144.7227  160.5036 C.ar    1  UNL1        0.0665
      9 C         140.9915  145.1315  161.8339 C.ar    1  UNL1        0.0418
     10 C         139.9767  146.2107  162.0694 C.3     1  UNL1        0.0502
     11 C         143.4235  142.2943  162.8835 C.ar    1  UNL1        0.0970
     12 C         142.8076  141.0072  163.3459 C.ar    1  UNL1        0.0206
     13 C         143.6553  139.9703  164.0213 C.ar    1  UNL1        0.0032
     14 C         145.1189  140.2205  164.2343 C.ar    1  UNL1        0.0207
     15 C         145.7348  141.5077  163.7719 C.ar    1  UNL1        0.0989
     16 N         144.8871  142.5446  163.0965 N.ar    1  UNL1       -0.2424
     17 C         141.3542  144.3399  164.3611 C.3     1  UNL1        0.1058
     18 C         138.8912  144.5311  165.1653 C.3     1  UNL1        0.0021
     19 C         140.1195  143.7037  164.9274 C.3     1  UNL1        0.0245
     20 C         141.8427  145.9270  156.7334 C.3     1  UNL1        0.0911
     21 C         140.9770  145.1641  155.7751 C.3     1  UNL1        0.0386
     22 C         141.0769  143.6693  155.7010 C.3     1  UNL1        0.0739
     23 N         140.6198  142.8288  156.8562 N.3     1  UNL1       -0.2697
     24 C         139.1939  142.8988  157.3166 C.3     1  UNL1        0.0938
     25 C         138.7367  142.0582  158.4719 C.3     1  UNL1        0.1081
     26 N         139.7054  141.1478  159.1667 N.pl3   1  UNL1       -0.3040
     27 C         141.1312  141.0780  158.7062 C.3     1  UNL1        0.1081
     28 C         141.5884  141.9184  157.5510 C.3     1  UNL1        0.0938
     29 C         139.2482  140.3073  160.3220 C.ar    1  UNL1        0.0594
     30 C         139.2627  138.8114  160.2131 C.ar    1  UNL1        0.0154
     31 C         138.8055  137.9709  161.3683 C.ar    1  UNL1        0.0022
     32 C         138.3339  138.6264  162.6324 C.ar    1  UNL1        0.0123
     33 C         138.3194  140.1224  162.7413 C.ar    1  UNL1        0.0694
     34 CL        137.8478  140.7778  164.0053 Cl      1  UNL1       -0.0813
     35 C         138.7766  140.9628  161.5861 C.ar    1  UNL1        0.0815
     36 CL        138.7622  142.4588  161.6948 Cl      1  UNL1       -0.0801
@<TRIPOS>BOND
     1    18    19    1
     2    19    17    1
     3    17     5    1
     4     5     6   ar
     5     6    11    1
     6    11    12   ar
     7    12    13   ar
     8    13    14   ar
     9    14    15   ar
    10    15    16   ar
    11     6     7   ar
    12     7     8   ar
    13     8     1    1
    14     1     2    2
    15     1     3   am
    16     3    20    1
    17    20    21    1
    18    21    22    1
    19    22    23    1
    20    23    24    1
    21    24    25    1
    22    25    26    1
    23    26    29    1
    24    29    30   ar
    25    30    31   ar
    26    31    32   ar
    27    32    33   ar
    28    33    34    1
    29    33    35   ar
    30    35    36    1
    31    26    27    1
    32    27    28    1
    33     8     9   ar
    34     9    10    1
    35     9     5   ar
    36    16    11   ar
    37    28    23    1
    38    35    29   ar
    39     3     4    1
@<TRIPOS>MOLECULE
*****
 36 39 0 0 0
SMALL
GASTEIGER

@<TRIPOS>ATOM
      1 C         141.4173  138.3458  159.6648 C.2     1  UNL1        0.2470
      2 O         142.7380  138.2514  158.9599 O.2     1  UNL1       -0.2701
      3 N         140.1473  138.4245  158.8705 N.am    1  UNL1       -0.3008
      4 H         139.2804  138.4865  159.3331 H       1  UNL1        0.1497
      5 N         142.0376  138.3571  163.4963 N.ar    1  UNL1       -0.3293
      6 C         140.5395  138.4139  163.4450 C.ar    1  UNL1        0.0777
      7 C         140.1249  138.4166  162.0035 C.ar    1  UNL1        0.0243
      8 C         141.3666  138.3614  161.1639 C.ar    1  UNL1        0.0665
      9 C         142.5488  138.3246  162.0865 C.ar    1  UNL1        0.0418
     10 C         143.9892  138.2656  161.6720 C.3     1  UNL1        0.0502
     11 C         139.6180  138.4600  164.6277 C.ar    1  UNL1        0.0970
     12 C         139.4188  139.7461  165.3737 C.ar    1  UNL1        0.0206
     13 C         138.4973  139.7921  166.5563 C.ar    1  UNL1        0.0032
     14 C         137.7749  138.5521  166.9930 C.ar    1  UNL1        0.0207
     15 C         137.9741  137.2661  166.2470 C.ar    1  UNL1        0.0989
     16 N         138.8956  137.2201  165.0644 N.ar    1  UNL1       -0.2424
     17 C         142.8771  138.3363  164.7392 C.3     1  UNL1        0.1058
     18 C         144.2310  140.5502  164.6148 C.3     1  UNL1        0.0021
     19 C         143.3208  139.6246  165.3663 C.3     1  UNL1        0.0245
     20 C         140.1980  138.4089  157.3715 C.3     1  UNL1        0.0911
     21 C         139.6333  139.5579  156.5899 C.3     1  UNL1        0.0386
     22 C         138.4912  140.3546  157.1471 C.3     1  UNL1        0.0739
     23 N         138.6027  140.9746  158.5084 N.3     1  UNL1       -0.2697
     24 C         139.4970  142.1597  158.7218 C.3     1  UNL1        0.0938
     25 C         139.6086  142.7798  160.0831 C.3     1  UNL1        0.1081
     26 N         138.8258  142.2146  161.2311 N.pl3   1  UNL1       -0.3040
     27 C         137.9314  141.0295  161.0176 C.3     1  UNL1        0.1081
     28 C         137.8199  140.4095  159.6563 C.3     1  UNL1        0.0938
     29 C         138.9373  142.8346  162.5924 C.ar    1  UNL1        0.0594
     30 C         137.8015  143.6453  163.1426 C.ar    1  UNL1        0.0154
     31 C         137.9131  144.2653  164.5039 C.ar    1  UNL1        0.0022
     32 C         139.1604  144.0746  165.3150 C.ar    1  UNL1        0.0123
     33 C         140.2962  143.2638  164.7648 C.ar    1  UNL1        0.0694
     34 CL        141.5434  143.0731  165.5758 Cl      1  UNL1       -0.0813
     35 C         140.1846  142.6439  163.4035 C.ar    1  UNL1        0.0815
     36 CL        141.3203  141.8331  162.8531 Cl      1  UNL1       -0.0801
@<TRIPOS>BOND
     1    18    19    1
     2    19    17    1
     3    17     5    1
     4     5     6   ar
     5     6    11    1
     6    11    12   ar
     7    12    13   ar
     8    13    14   ar
     9    14    15   ar
    10    15    16   ar
    11     6     7   ar
    12     7     8   ar
    13     8     1    1
    14     1     2    2
    15     1     3   am
    16     3    20    1
    17    20    21    1
    18    21    22    1
    19    22    23    1
    20    23    24    1
    21    24    25    1
    22    25    26    1
    23    26    29    1
    24    29    30   ar
    25    30    31   ar
    26    31    32   ar
    27    32    33   ar
    28    33    34    1
    29    33    35   ar
    30    35    36    1
    31    26    27    1
    32    27    28    1
    33     8     9   ar
    34     9    10    1
    35     9     5   ar
    36    16    11   ar
    37    28    23    1
    38    35    29   ar
    39     3     4    1
@<TRIPOS>MOLECULE
*****
 36 39 0 0 0
SMALL
GASTEIGER

@<TRIPOS>ATOM
      1 C         138.9391  139.4453  159.1400 C.2     1  UNL1        0.2470
      2 O         138.0774  139.9837  158.0366 O.2     1  UNL1       -0.2701
      3 N         139.9682  138.3950  158.8435 N.am    1  UNL1       -0.3008
      4 H         140.5338  138.0417  159.5677 H       1  UNL1        0.1497
      5 N         138.2641  140.0718  162.9106 N.ar    1  UNL1       -0.3293
      6 C         138.7646  141.4181  162.4782 C.ar    1  UNL1        0.0777
      7 C         139.0784  141.3473  161.0131 C.ar    1  UNL1        0.0243
      8 C         138.7718  139.9572  160.5401 C.ar    1  UNL1        0.0665
      9 C         138.2686  139.1689  161.7128 C.ar    1  UNL1        0.0418
     10 C         137.8443  137.7303  161.6915 C.3     1  UNL1        0.0502
     11 C         138.9234  142.6236  163.3566 C.ar    1  UNL1        0.0970
     12 C         137.7217  143.2387  164.0105 C.ar    1  UNL1        0.0206
     13 C         137.8806  144.4441  164.8889 C.ar    1  UNL1        0.0032
     14 C         139.2411  145.0344  165.1135 C.ar    1  UNL1        0.0207
     15 C         140.4428  144.4194  164.4596 C.ar    1  UNL1        0.0989
     16 N         140.2840  143.2139  163.5812 N.ar    1  UNL1       -0.2424
     17 C         137.8346  139.6946  164.2974 C.3     1  UNL1        0.1058
     18 C         139.1782  137.6063  165.0616 C.3     1  UNL1        0.0021
     19 C         138.8113  139.0503  165.2360 C.3     1  UNL1        0.0245
     20 C         140.1355  137.8831  157.4435 C.3     1  UNL1        0.0911
     21 C         141.5047  137.7883  156.8382 C.3     1  UNL1        0.0386
     22 C         142.6799  137.4226  157.6953 C.3     1  UNL1        0.0739
     23 N         143.0032  138.2376  158.9125 N.3     1  UNL1       -0.2697
     24 C         143.1687  137.5651  160.2430 C.3     1  UNL1        0.0938
     25 C         143.4920  138.3801  161.4602 C.3     1  UNL1        0.1081
     26 N         143.6496  139.8675  161.3468 N.pl3   1  UNL1       -0.3040
     27 C         143.4840  140.5398  160.0162 C.3     1  UNL1        0.1081
     28 C         143.1608  139.7249  158.7991 C.3     1  UNL1        0.0938
     29 C         143.9729  140.6824  162.5639 C.ar    1  UNL1        0.0594
     30 C         145.2680  141.4352  162.6402 C.ar    1  UNL1        0.0154
     31 C         145.5912  142.2501  163.8573 C.ar    1  UNL1        0.0022
     32 C         144.6193  142.3122  164.9982 C.ar    1  UNL1        0.0123
     33 C         143.3242  141.5593  164.9219 C.ar    1  UNL1        0.0694
     34 CL        142.3523  141.6214  166.0627 Cl      1  UNL1       -0.0813
     35 C         143.0009  140.7444  163.7048 C.ar    1  UNL1        0.0815
     36 CL        141.7058  139.9915  163.6284 Cl      1  UNL1       -0.0801
@<TRIPOS>BOND
     1    18    19    1
     2    19    17    1
     3    17     5    1
     4     5     6   ar
     5     6    11    1
     6    11    12   ar
     7    12    13   ar
     8    13    14   ar
     9    14    15   ar
    10    15    16   ar
    11     6     7   ar
    12     7     8   ar
    13     8     1    1
    14     1     2    2
    15     1     3   am
    16     3    20    1
    17    20    21    1
    18    21    22    1
    19    22    23    1
    20    23    24    1
    21    24    25    1
    22    25    26    1
    23    26    29    1
    24    29    30   ar
    25    30    31   ar
    26    31    32   ar
    27    32    33   ar
    28    33    34    1
    29    33    35   ar
    30    35    36    1
    31    26    27    1
    32    27    28    1
    33     8     9   ar
    34     9    10    1
    35     9     5   ar
    36    16    11   ar
    37    28    23    1
    38    35    29   ar
    39     3     4    1
@<TRIPOS>MOLECULE
*****
 36 39 0 0 0
SMALL
GASTEIGER

@<TRIPOS>ATOM
      1 C         139.8464  139.7096  158.6794 C.2     1  UNL1        0.2470
      2 O         140.1824  140.6592  157.5679 O.2     1  UNL1       -0.2701
      3 N         139.8841  138.2295  158.4384 N.am    1  UNL1       -0.3008
      4 H         139.6636  137.6063  159.1679 H       1  UNL1        0.1497
      5 N         138.5672  141.6469  161.7899 N.ar    1  UNL1       -0.3293
      6 C         139.2284  140.4656  162.4359 C.ar    1  UNL1        0.0777
      7 C         139.7881  139.5961  161.3493 C.ar    1  UNL1        0.0243
      8 C         139.4728  140.2400  160.0318 C.ar    1  UNL1        0.0665
      9 C         138.7182  141.5075  160.3041 C.ar    1  UNL1        0.0418
     10 C         138.2048  142.4671  159.2718 C.3     1  UNL1        0.0502
     11 C         139.3148  140.2004  163.9098 C.ar    1  UNL1        0.0970
     12 C         138.1033  139.7314  164.6597 C.ar    1  UNL1        0.0206
     13 C         138.1897  139.4662  166.1335 C.ar    1  UNL1        0.0032
     14 C         139.4876  139.6700  166.8574 C.ar    1  UNL1        0.0207
     15 C         140.6990  140.1390  166.1076 C.ar    1  UNL1        0.0989
     16 N         140.6126  140.4042  164.6337 N.ar    1  UNL1       -0.2424
     17 C         137.8762  142.7704  162.5043 C.3     1  UNL1        0.1058
     18 C         138.1661  144.2843  164.5958 C.3     1  UNL1        0.0021
     19 C         138.6787  143.7700  163.2832 C.3     1  UNL1        0.0245
     20 C         140.2578  137.6991  157.0860 C.3     1  UNL1        0.0911
     21 C         141.7010  137.6154  156.6857 C.3     1  UNL1        0.0386
     22 C         142.7442  137.2743  157.7080 C.3     1  UNL1        0.0739
     23 N         143.0530  138.2382  158.8151 N.3     1  UNL1       -0.2697
     24 C         143.4557  139.6466  158.4925 C.3     1  UNL1        0.0938
     25 C         143.7645  140.6107  159.5995 C.3     1  UNL1        0.1081
     26 N         143.6705  140.1662  161.0291 N.pl3   1  UNL1       -0.3040
     27 C         143.2678  138.7577  161.3515 C.3     1  UNL1        0.1081
     28 C         142.9590  137.7937  160.2445 C.3     1  UNL1        0.0938
     29 C         143.9793  141.1301  162.1360 C.ar    1  UNL1        0.0594
     30 C         145.1606  140.8928  163.0294 C.ar    1  UNL1        0.0154
     31 C         145.4694  141.8567  164.1364 C.ar    1  UNL1        0.0022
     32 C         144.5969  143.0580  164.3500 C.ar    1  UNL1        0.0123
     33 C         143.4155  143.2954  163.4566 C.ar    1  UNL1        0.0694
     34 CL        142.5431  144.4966  163.6702 Cl      1  UNL1       -0.0813
     35 C         143.1068  142.3314  162.3496 C.ar    1  UNL1        0.0815
     36 CL        141.9255  142.5687  161.4562 Cl      1  UNL1       -0.0801
@<TRIPOS>BOND
     1    18    19    1
     2    19    17    1
     3    17     5    1
     4     5     6   ar
     5     6    11    1
     6    11    12   ar
     7    12    13   ar
     8    13    14   ar
     9    14    15   ar
    10    15    16   ar
    11     6     7   ar
    12     7     8   ar
    13     8     1    1
    14     1     2    2
    15     1     3   am
    16     3    20    1
    17    20    21    1
    18    21    22    1
    19    22    23    1
    20    23    24    1
    21    24    25    1
    22    25    26    1
    23    26    29    1
    24    29    30   ar
    25    30    31   ar
    26    31    32   ar
    27    32    33   ar
    28    33    34    1
    29    33    35   ar
    30    35    36    1
    31    26    27    1
    32    27    28    1
    33     8     9   ar
    34     9    10    1
    35     9     5   ar
    36    16    11   ar
    37    28    23    1
    38    35    29   ar
    39     3     4    1
@<TRIPOS>MOLECULE
*****
 36 39 0 0 0
SMALL
GASTEIGER

@<TRIPOS>ATOM
      1 C         142.4966  142.7613  158.5244 C.2     1  UNL1        0.2470
      2 O         143.7778  143.1305  157.8372 O.2     1  UNL1       -0.2701
      3 N         141.4627  141.9522  157.7991 N.am    1  UNL1       -0.3008
      4 H         140.6218  141.7098  158.2501 H       1  UNL1        0.1497
      5 N         141.3805  144.3918  161.8652 N.ar    1  UNL1       -0.3293
      6 C         142.3576  143.3649  162.3561 C.ar    1  UNL1        0.0777
      7 C         142.8946  142.6292  161.1643 C.ar    1  UNL1        0.0243
      8 C         142.2494  143.2013  159.9370 C.ar    1  UNL1        0.0665
      9 C         141.3136  144.2907  160.3702 C.ar    1  UNL1        0.0418
     10 C         140.4608  145.1313  159.4669 C.3     1  UNL1        0.0502
     11 C         142.7319  143.1173  163.7874 C.ar    1  UNL1        0.0970
     12 C         141.7973  142.3651  164.6877 C.ar    1  UNL1        0.0206
     13 C         142.1717  142.1175  166.1190 C.ar    1  UNL1        0.0032
     14 C         143.4806  142.6222  166.6499 C.ar    1  UNL1        0.0207
     15 C         144.4152  143.3744  165.7496 C.ar    1  UNL1        0.0989
     16 N         144.0409  143.6220  164.3184 N.ar    1  UNL1       -0.2424
     17 C         140.6062  145.3513  162.7195 C.3     1  UNL1        0.1058
     18 C         139.1378  144.8916  164.8130 C.3     1  UNL1        0.0021
     19 C         139.2982  144.9318  163.3221 C.3     1  UNL1        0.0245
     20 C         141.7099  141.5122  156.3865 C.3     1  UNL1        0.0911
     21 C         142.3859  140.2006  156.1169 C.3     1  UNL1        0.0386
     22 C         141.8314  138.9365  156.7036 C.3     1  UNL1        0.0739
     23 N         141.2968  138.9315  158.1052 N.3     1  UNL1       -0.2697
     24 C         142.2413  139.0022  159.2683 C.3     1  UNL1        0.0938
     25 C         141.7068  138.9972  160.6699 C.3     1  UNL1        0.1081
     26 N         140.2278  138.9215  160.9083 N.pl3   1  UNL1       -0.3040
     27 C         139.2834  138.8507  159.7450 C.3     1  UNL1        0.1081
     28 C         139.8179  138.8557  158.3435 C.3     1  UNL1        0.0938
     29 C         139.6933  138.9165  162.3098 C.ar    1  UNL1        0.0594
     30 C         139.6292  137.6330  163.0834 C.ar    1  UNL1        0.0154
     31 C         139.0947  137.6280  164.4849 C.ar    1  UNL1        0.0022
     32 C         138.6243  138.9064  165.1128 C.ar    1  UNL1        0.0123
     33 C         138.6883  140.1899  164.3391 C.ar    1  UNL1        0.0694
     34 CL        138.2179  141.4683  164.9670 Cl      1  UNL1       -0.0813
     35 C         139.2228  140.1949  162.9376 C.ar    1  UNL1        0.0815
     36 CL        139.2870  141.4784  162.1639 Cl      1  UNL1       -0.0801
@<TRIPOS>BOND
     1    18    19    1
     2    19    17    1
     3    17     5    1
     4     5     6   ar
     5     6    11    1
     6    11    12   ar
     7    12    13   ar
     8    13    14   ar
     9    14    15   ar
    10    15    16   ar
    11     6     7   ar
    12     7     8   ar
    13     8     1    1
    14     1     2    2
    15     1     3   am
    16     3    20    1
    17    20    21    1
    18    21    22    1
    19    22    23    1
    20    23    24    1
    21    24    25    1
    22    25    26    1
    23    26    29    1
    24    29    30   ar
    25    30    31   ar
    26    31    32   ar
    27    32    33   ar
    28    33    34    1
    29    33    35   ar
    30    35    36    1
    31    26    27    1
    32    27    28    1
    33     8     9   ar
    34     9    10    1
    35     9     5   ar
    36    16    11   ar
    37    28    23    1
    38    35    29   ar
    39     3     4    1
@<TRIPOS>MOLECULE
*****
 36 39 0 0 0
SMALL
GASTEIGER

@<TRIPOS>ATOM
      1 C         141.4319  138.2630  159.5224 C.2     1  UNL1        0.2470
      2 O         140.1568  138.4435  158.7534 O.2     1  UNL1       -0.2701
      3 N         142.7161  137.9984  158.7938 N.am    1  UNL1       -0.3008
      4 H         143.5530  137.8799  159.2985 H       1  UNL1        0.1497
      5 N         142.1589  138.4620  163.3299 N.ar    1  UNL1       -0.3293
      6 C         140.6592  138.4909  163.3193 C.ar    1  UNL1        0.0777
      7 C         140.2044  138.4199  161.8917 C.ar    1  UNL1        0.0243
      8 C         141.4229  138.3471  161.0200 C.ar    1  UNL1        0.0665
      9 C         142.6310  138.3730  161.9089 C.ar    1  UNL1        0.0418
     10 C         144.0600  138.3195  161.4563 C.3     1  UNL1        0.0502
     11 C         139.7704  138.5760  164.5247 C.ar    1  UNL1        0.0970
     12 C         139.6739  139.8586  165.2963 C.ar    1  UNL1        0.0206
     13 C         138.7851  139.9436  166.5016 C.ar    1  UNL1        0.0032
     14 C         137.9929  138.7460  166.9353 C.ar    1  UNL1        0.0207
     15 C         138.0895  137.4633  166.1637 C.ar    1  UNL1        0.0989
     16 N         138.9783  137.3783  164.9584 N.ar    1  UNL1       -0.2424
     17 C         143.0331  138.5130  164.5478 C.3     1  UNL1        0.1058
     18 C         144.7225  140.4725  164.3111 C.3     1  UNL1        0.0021
     19 C         143.5741  139.8269  165.0282 C.3     1  UNL1        0.0245
     20 C         142.7251  137.9143  157.2961 C.3     1  UNL1        0.0911
     21 C         143.1990  139.0818  156.4823 C.3     1  UNL1        0.0386
     22 C         143.9479  140.2013  157.1421 C.3     1  UNL1        0.0739
     23 N         143.2525  141.0879  158.1323 N.3     1  UNL1       -0.2697
     24 C         143.9950  141.6011  159.3303 C.3     1  UNL1        0.0938
     25 C         143.2997  142.4877  160.3206 C.3     1  UNL1        0.1081
     26 N         141.8618  142.8609  160.1128 N.pl3   1  UNL1       -0.3040
     27 C         141.1193  142.3476  158.9148 C.3     1  UNL1        0.1081
     28 C         141.8147  141.4611  157.9246 C.3     1  UNL1        0.0938
     29 C         141.1664  143.7475  161.1030 C.ar    1  UNL1        0.0594
     30 C         140.6991  145.1115  160.6897 C.ar    1  UNL1        0.0154
     31 C         140.0037  145.9980  161.6799 C.ar    1  UNL1        0.0022
     32 C         139.7757  145.5205  163.0835 C.ar    1  UNL1        0.0123
     33 C         140.2431  144.1564  163.4968 C.ar    1  UNL1        0.0694
     34 CL        140.0151  143.6789  164.9003 Cl      1  UNL1       -0.0813
     35 C         140.9385  143.2699  162.5066 C.ar    1  UNL1        0.0815
     36 CL        141.4059  141.9058  162.9199 Cl      1  UNL1       -0.0801
@<TRIPOS>BOND
     1    18    19    1
     2    19    17    1
     3    17     5    1
     4     5     6   ar
     5     6    11    1
     6    11    12   ar
     7    12    13   ar
     8    13    14   ar
     9    14    15   ar
    10    15    16   ar
    11     6     7   ar
    12     7     8   ar
    13     8     1    1
    14     1     2    2
    15     1     3   am
    16     3    20    1
    17    20    21    1
    18    21    22    1
    19    22    23    1
    20    23    24    1
    21    24    25    1
    22    25    26    1
    23    26    29    1
    24    29    30   ar
    25    30    31   ar
    26    31    32   ar
    27    32    33   ar
    28    33    34    1
    29    33    35   ar
    30    35    36    1
    31    26    27    1
    32    27    28    1
    33     8     9   ar
    34     9    10    1
    35     9     5   ar
    36    16    11   ar
    37    28    23    1
    38    35    29   ar
    39     3     4    1
@<TRIPOS>MOLECULE
*****
 36 39 0 0 0
SMALL
GASTEIGER

@<TRIPOS>ATOM
      1 C         141.0534  142.4316  157.7284 C.2     1  UNL1        0.2470
      2 O         141.9896  141.6613  156.8452 O.2     1  UNL1       -0.2701
      3 N         139.7506  142.9354  157.1817 N.am    1  UNL1       -0.3008
      4 H         139.1361  143.4411  157.7614 H       1  UNL1        0.1497
      5 N         142.7098  143.1230  161.1699 N.ar    1  UNL1       -0.3293
      6 C         141.2583  143.0938  161.5475 C.ar    1  UNL1        0.0777
      7 C         140.4612  142.8312  160.3042 C.ar    1  UNL1        0.0243
      8 C         141.4200  142.6982  159.1583 C.ar    1  UNL1        0.0665
      9 C         142.8097  142.8785  159.6934 C.ar    1  UNL1        0.0418
     10 C         144.0768  142.8239  158.8925 C.3     1  UNL1        0.0502
     11 C         140.7018  143.2922  162.9262 C.ar    1  UNL1        0.0970
     12 C         139.9575  144.5509  163.2606 C.ar    1  UNL1        0.0206
     13 C         139.4010  144.7493  164.6393 C.ar    1  UNL1        0.0032
     14 C         139.5887  143.6891  165.6836 C.ar    1  UNL1        0.0207
     15 C         140.3330  142.4304  165.3493 C.ar    1  UNL1        0.0989
     16 N         140.8895  142.2320  163.9706 N.ar    1  UNL1       -0.2424
     17 C         143.8594  143.3558  162.1048 C.3     1  UNL1        0.1058
     18 C         143.7353  144.8415  164.2326 C.3     1  UNL1        0.0021
     19 C         144.0276  144.6901  162.7692 C.3     1  UNL1        0.0245
     20 C         139.3841  142.6689  155.7518 C.3     1  UNL1        0.0911
     21 C         138.9851  141.2874  155.3249 C.3     1  UNL1        0.0386
     22 C         138.0256  140.4922  156.1596 C.3     1  UNL1        0.0739
     23 N         138.4274  140.0300  157.5289 N.3     1  UNL1       -0.2697
     24 C         139.5173  139.0115  157.6868 C.3     1  UNL1        0.0938
     25 C         139.9192  138.5492  159.0561 C.3     1  UNL1        0.1081
     26 N         139.2311  139.1054  160.2674 N.pl3   1  UNL1       -0.3040
     27 C         138.1412  140.1238  160.1094 C.3     1  UNL1        0.1081
     28 C         137.7394  140.5861  158.7402 C.3     1  UNL1        0.0938
     29 C         139.6330  138.6431  161.6366 C.ar    1  UNL1        0.0594
     30 C         138.6432  137.9269  162.5069 C.ar    1  UNL1        0.0154
     31 C         139.0450  137.4646  163.8761 C.ar    1  UNL1        0.0022
     32 C         140.4366  137.7185  164.3751 C.ar    1  UNL1        0.0123
     33 C         141.4264  138.4347  163.5048 C.ar    1  UNL1        0.0694
     34 CL        142.8180  138.6886  164.0037 Cl      1  UNL1       -0.0813
     35 C         141.0246  138.8970  162.1356 C.ar    1  UNL1        0.0815
     36 CL        142.0143  139.6132  161.2652 Cl      1  UNL1       -0.0801
@<TRIPOS>BOND
     1    18    19    1
     2    19    17    1
     3    17     5    1
     4     5     6   ar
     5     6    11    1
     6    11    12   ar
     7    12    13   ar
     8    13    14   ar
     9    14    15   ar
    10    15    16   ar
    11     6     7   ar
    12     7     8   ar
    13     8     1    1
    14     1     2    2
    15     1     3   am
    16     3    20    1
    17    20    21    1
    18    21    22    1
    19    22    23    1
    20    23    24    1
    21    24    25    1
    22    25    26    1
    23    26    29    1
    24    29    30   ar
    25    30    31   ar
    26    31    32   ar
    27    32    33   ar
    28    33    34    1
    29    33    35   ar
    30    35    36    1
    31    26    27    1
    32    27    28    1
    33     8     9   ar
    34     9    10    1
    35     9     5   ar
    36    16    11   ar
    37    28    23    1
    38    35    29   ar
    39     3     4    1
