@<TRIPOS>MOLECULE
*****
 38 42 0 0 0
SMALL
GASTEIGER

@<TRIPOS>ATOM
      1 C         142.4247  143.5467  157.3943 C.3     1  UNL1        0.1065
      2 C         143.4335  141.1525  157.3946 C.2     1  UNL1        0.2475
      3 O         144.7837  141.7215  157.7162 O.2     1  UNL1       -0.2701
      4 N         142.2540  142.0651  157.2336 N.am    1  UNL1       -0.2999
      5 H         141.3679  141.6916  157.0225 H       1  UNL1        0.1498
      6 C         142.9219  136.7077  156.9126 C.ar    1  UNL1        0.0863
      7 C         143.4059  137.5363  155.7598 C.ar    1  UNL1        0.0308
      8 C         143.5765  139.0179  155.9205 C.ar    1  UNL1        0.0643
      9 CL        144.0606  139.8464  154.7676 Cl      1  UNL1       -0.0820
     10 C         143.2630  139.6709  157.2339 C.ar    1  UNL1        0.0745
     11 C         142.7789  138.8423  158.3868 C.ar    1  UNL1        0.0643
     12 CL        142.4653  139.4953  159.7003 Cl      1  UNL1       -0.0820
     13 C         142.6083  137.3607  158.2261 C.ar    1  UNL1        0.0308
     14 C         141.3598  131.9993  155.1037 C.3     1  UNL1        0.0756
     15 C         142.0333  133.0619  155.9207 C.ar    1  UNL1        0.1613
     16 N         142.9443  132.8304  157.0895 N.ar    1  UNL1       -0.2073
     17 C         143.3881  134.1680  157.6034 C.ar    1  UNL1        0.2013
     18 N         142.7513  135.2261  156.7521 N.ar    1  UNL1       -0.2083
     19 N         141.9140  134.5426  155.7121 N.ar    1  UNL1       -0.1487
     20 C         141.2868  144.3820  157.9018 C.3     1  UNL1        0.1537
     21 C         141.0334  144.4877  159.3764 C.2     1  UNL1        0.3564
     22 N         142.0780  144.6438  160.4416 N.2     1  UNL1       -0.0350
     23 C         141.3811  144.7085  161.7682 C.2     1  UNL1        0.2278
     24 C         141.8993  144.8581  163.1679 C.2     1  UNL1        0.0251
     25 C         143.3746  144.9742  163.4132 C.3     1  UNL1        0.0351
     26 C         140.9421  144.8917  164.3224 C.2     1  UNL1        0.0070
     27 C         139.4669  144.7757  164.0772 C.2     1  UNL1        0.0436
     28 CL        138.5097  144.8093  165.2317 Cl      1  UNL1       -0.0864
     29 C         138.9487  144.6261  162.6776 C.3     1  UNL1        0.1155
     30 C         139.9058  144.5925  161.5231 C.2     1  UNL1        0.2180
     31 N         139.6909  144.4561  160.0448 N.2     1  UNL1       -0.0385
     32 C         140.4023  145.1115  156.9346 C.ar    1  UNL1       -0.0068
     33 C         139.9272  144.4251  155.6883 C.ar    1  UNL1       -0.0035
     34 C         139.0426  145.1546  154.7210 C.ar    1  UNL1        0.0020
     35 C         138.6333  146.5704  155.0001 C.ar    1  UNL1        0.0296
     36 C         139.1084  147.2567  156.2464 C.ar    1  UNL1        0.1398
     37 F         138.6991  148.6726  156.5254 F       1  UNL1       -0.2042
     38 C         139.9929  146.5273  157.2136 C.ar    1  UNL1        0.0260
@<TRIPOS>BOND
     1    14    15    1
     2    15    16   ar
     3    16    17   ar
     4    17    18   ar
     5    18     6    1
     6     6     7   ar
     7     7     8   ar
     8     8     9    1
     9     8    10   ar
    10    10     2    1
    11     2     3    2
    12     2     4   am
    13     4     1    1
    14    20     1    1
    15    20    32    1
    16    32    33   ar
    17    33    34   ar
    18    34    35   ar
    19    35    36   ar
    20    36    37    1
    21    36    38   ar
    22    20    21    1
    23    21    22    2
    24    22    23    1
    25    23    24    2
    26    24    25    1
    27    24    26    1
    28    26    27    2
    29    27    28    1
    30    27    29    1
    31    29    30    1
    32    30    31    2
    33    10    11   ar
    34    11    12    1
    35    11    13   ar
    36    18    19   ar
    37    19    15   ar
    38    13     6   ar
    39    38    32   ar
    40    31    21    1
    41    30    23    1
    42     4     5    1
@<TRIPOS>MOLECULE
*****
 38 42 0 0 0
SMALL
GASTEIGER

@<TRIPOS>ATOM
      1 C         143.4729  139.7709  164.9681 C.3     1  UNL1        0.1065
      2 C         143.2810  139.8470  162.3782 C.2     1  UNL1        0.2475
      3 O         144.2007  141.0315  162.3448 O.2     1  UNL1       -0.2701
      4 N         142.9170  139.2167  163.6898 N.am    1  UNL1       -0.2999
      5 H         142.3134  138.4392  163.7117 H       1  UNL1        0.1498
      6 C         141.6137  138.1845  158.5433 C.ar    1  UNL1        0.0863
      7 C         141.0292  139.4320  159.1367 C.ar    1  UNL1        0.0308
      8 C         141.5850  139.9862  160.4150 C.ar    1  UNL1        0.0643
      9 CL        141.0005  141.2337  161.0082 Cl      1  UNL1       -0.0820
     10 C         142.7252  139.2928  161.0999 C.ar    1  UNL1        0.0745
     11 C         143.3096  138.0453  160.5066 C.ar    1  UNL1        0.0643
     12 CL        144.4498  137.3519  161.1915 Cl      1  UNL1       -0.0820
     13 C         142.7539  137.4911  159.2283 C.ar    1  UNL1        0.0308
     14 C         141.2365  135.7869  153.8539 C.3     1  UNL1        0.0756
     15 C         140.8845  136.5282  155.1096 C.ar    1  UNL1        0.1613
     16 N         139.5209  137.0266  155.4864 N.ar    1  UNL1       -0.2073
     17 C         139.6280  137.7077  156.8186 C.ar    1  UNL1        0.2013
     18 N         141.0580  137.6302  157.2650 N.ar    1  UNL1       -0.2083
     19 N         141.8345  136.9013  156.2089 N.ar    1  UNL1       -0.1487
     20 C         142.6928  140.7890  165.7458 C.3     1  UNL1        0.1537
     21 C         141.8423  141.7928  165.0254 C.2     1  UNL1        0.3564
     22 N         140.3470  141.7618  164.9117 N.2     1  UNL1       -0.0350
     23 C         139.9185  142.9537  164.1081 C.2     1  UNL1        0.2278
     24 C         138.5667  143.4392  163.6756 C.2     1  UNL1        0.0251
     25 C         137.3361  142.6716  164.0585 C.3     1  UNL1        0.0351
     26 C         138.4455  144.6924  162.8602 C.2     1  UNL1        0.0070
     27 C         139.6759  145.4600  162.4773 C.2     1  UNL1        0.0436
     28 CL        139.5547  146.7132  161.6618 Cl      1  UNL1       -0.0864
     29 C         141.0277  144.9745  162.9098 C.3     1  UNL1        0.1155
     30 C         141.1489  143.7213  163.7252 C.2     1  UNL1        0.2180
     31 N         142.3380  143.0039  164.2921 N.2     1  UNL1       -0.0385
     32 C         142.7632  140.8033  167.2441 C.ar    1  UNL1       -0.0068
     33 C         143.0422  142.0862  167.9696 C.ar    1  UNL1       -0.0035
     34 C         143.1126  142.1006  169.4679 C.ar    1  UNL1        0.0020
     35 C         142.9040  140.8320  170.2407 C.ar    1  UNL1        0.0296
     36 C         142.6250  139.5491  169.5152 C.ar    1  UNL1        0.1398
     37 F         142.4164  138.2805  170.2880 F       1  UNL1       -0.2042
     38 C         142.5546  139.5347  168.0170 C.ar    1  UNL1        0.0260
@<TRIPOS>BOND
     1    14    15    1
     2    15    16   ar
     3    16    17   ar
     4    17    18   ar
     5    18     6    1
     6     6     7   ar
     7     7     8   ar
     8     8     9    1
     9     8    10   ar
    10    10     2    1
    11     2     3    2
    12     2     4   am
    13     4     1    1
    14    20     1    1
    15    20    32    1
    16    32    33   ar
    17    33    34   ar
    18    34    35   ar
    19    35    36   ar
    20    36    37    1
    21    36    38   ar
    22    20    21    1
    23    21    22    2
    24    22    23    1
    25    23    24    2
    26    24    25    1
    27    24    26    1
    28    26    27    2
    29    27    28    1
    30    27    29    1
    31    29    30    1
    32    30    31    2
    33    10    11   ar
    34    11    12    1
    35    11    13   ar
    36    18    19   ar
    37    19    15   ar
    38    13     6   ar
    39    38    32   ar
    40    31    21    1
    41    30    23    1
    42     4     5    1
@<TRIPOS>MOLECULE
*****
 38 42 0 0 0
SMALL
GASTEIGER

@<TRIPOS>ATOM
      1 C         141.8179  138.7084  165.5665 C.3     1  UNL1        0.1065
      2 C         142.2510  139.0155  163.0233 C.2     1  UNL1        0.2475
      3 O         143.4851  139.8114  163.3295 O.2     1  UNL1       -0.2701
      4 N         141.4174  138.4640  164.1417 N.am    1  UNL1       -0.2999
      5 H         140.6075  137.9416  163.9407 H       1  UNL1        0.1498
      6 C         141.0497  138.2825  158.7490 C.ar    1  UNL1        0.0863
      7 C         142.4002  137.8455  159.2340 C.ar    1  UNL1        0.0308
      8 C         142.8006  138.0899  160.6587 C.ar    1  UNL1        0.0643
      9 CL        144.1511  137.6528  161.1436 Cl      1  UNL1       -0.0820
     10 C         141.8506  138.7712  161.5985 C.ar    1  UNL1        0.0745
     11 C         140.5001  139.2082  161.1135 C.ar    1  UNL1        0.0643
     12 CL        139.5501  139.8895  162.0533 Cl      1  UNL1       -0.0820
     13 C         140.0997  138.9639  159.6887 C.ar    1  UNL1        0.0308
     14 C         138.1381  137.6103  154.3956 C.3     1  UNL1        0.0756
     15 C         139.3110  137.7293  155.3232 C.ar    1  UNL1        0.1613
     16 N         140.7550  137.5954  154.9403 N.ar    1  UNL1       -0.2073
     17 C         141.5821  137.7863  156.1770 C.ar    1  UNL1        0.2013
     18 N         140.6492  138.0382  157.3242 N.ar    1  UNL1       -0.2083
     19 N         139.2456  138.0030  156.7965 N.ar    1  UNL1       -0.1487
     20 C         141.4106  139.9785  166.2527 C.3     1  UNL1        0.1537
     21 C         141.2989  141.2522  165.4684 C.2     1  UNL1        0.3564
     22 N         142.3787  142.2789  165.2959 N.2     1  UNL1       -0.0350
     23 C         141.8349  143.3841  164.4397 C.2     1  UNL1        0.2278
     24 C         142.4462  144.6590  163.9388 C.2     1  UNL1        0.0251
     25 C         143.8620  145.0028  164.2954 C.3     1  UNL1        0.0351
     26 C         141.6414  145.5902  163.0811 C.2     1  UNL1        0.0070
     27 C         140.2257  145.2464  162.7245 C.2     1  UNL1        0.0436
     28 CL        139.4209  146.1776  161.8669 Cl      1  UNL1       -0.0864
     29 C         139.6144  143.9715  163.2255 C.3     1  UNL1        0.1155
     30 C         140.4191  143.0403  164.0830 C.2     1  UNL1        0.2180
     31 N         140.0878  141.7227  164.7188 N.2     1  UNL1       -0.0385
     32 C         141.1149  139.9749  167.7233 C.ar    1  UNL1       -0.0068
     33 C         142.2030  139.6592  168.7063 C.ar    1  UNL1       -0.0035
     34 C         141.9074  139.6555  170.1769 C.ar    1  UNL1        0.0020
     35 C         140.5236  139.9676  170.6645 C.ar    1  UNL1        0.0296
     36 C         139.4355  140.2833  169.6815 C.ar    1  UNL1        0.1398
     37 F         138.0517  140.5954  170.1690 F       1  UNL1       -0.2042
     38 C         139.7311  140.2870  168.2109 C.ar    1  UNL1        0.0260
@<TRIPOS>BOND
     1    14    15    1
     2    15    16   ar
     3    16    17   ar
     4    17    18   ar
     5    18     6    1
     6     6     7   ar
     7     7     8   ar
     8     8     9    1
     9     8    10   ar
    10    10     2    1
    11     2     3    2
    12     2     4   am
    13     4     1    1
    14    20     1    1
    15    20    32    1
    16    32    33   ar
    17    33    34   ar
    18    34    35   ar
    19    35    36   ar
    20    36    37    1
    21    36    38   ar
    22    20    21    1
    23    21    22    2
    24    22    23    1
    25    23    24    2
    26    24    25    1
    27    24    26    1
    28    26    27    2
    29    27    28    1
    30    27    29    1
    31    29    30    1
    32    30    31    2
    33    10    11   ar
    34    11    12    1
    35    11    13   ar
    36    18    19   ar
    37    19    15   ar
    38    13     6   ar
    39    38    32   ar
    40    31    21    1
    41    30    23    1
    42     4     5    1
@<TRIPOS>MOLECULE
*****
 38 42 0 0 0
SMALL
GASTEIGER

@<TRIPOS>ATOM
      1 C         143.4971  139.7540  165.0406 C.3     1  UNL1        0.1065
      2 C         142.2111  138.6744  163.0580 C.2     1  UNL1        0.2475
      3 O         141.3793  137.8868  164.0264 O.2     1  UNL1       -0.2701
      4 N         143.2700  139.6081  163.5650 N.am    1  UNL1       -0.2999
      5 H         143.8159  140.1250  162.9294 H       1  UNL1        0.1498
      6 C         141.5296  138.2364  158.6315 C.ar    1  UNL1        0.0863
      7 C         142.8062  137.7440  159.2461 C.ar    1  UNL1        0.0308
      8 C         143.0334  137.8900  160.7216 C.ar    1  UNL1        0.0643
      9 CL        144.3100  137.3976  161.3362 Cl      1  UNL1       -0.0820
     10 C         141.9840  138.5284  161.5825 C.ar    1  UNL1        0.0745
     11 C         140.7073  139.0208  160.9678 C.ar    1  UNL1        0.0643
     12 CL        139.6579  139.6592  161.8287 Cl      1  UNL1       -0.0820
     13 C         140.4802  138.8748  159.4923 C.ar    1  UNL1        0.0308
     14 C         140.6913  136.1271  153.8640 C.3     1  UNL1        0.0756
     15 C         140.9170  137.1209  154.9646 C.ar    1  UNL1        0.1613
     16 N         140.9883  138.6108  154.8063 N.ar    1  UNL1       -0.2073
     17 C         141.2265  139.2100  156.1606 C.ar    1  UNL1        0.2013
     18 N         141.3024  138.0904  157.1560 N.ar    1  UNL1       -0.2083
     19 N         141.1111  136.7993  156.4168 N.ar    1  UNL1       -0.1487
     20 C         142.6991  140.7513  165.8271 C.3     1  UNL1        0.1537
     21 C         141.8558  141.7666  165.1144 C.2     1  UNL1        0.3564
     22 N         140.3565  141.8061  165.0891 N.2     1  UNL1       -0.0350
     23 C         139.9378  142.9846  164.2610 C.2     1  UNL1        0.2278
     24 C         138.5872  143.5194  163.8870 C.2     1  UNL1        0.0251
     25 C         137.3467  142.8305  164.3734 C.3     1  UNL1        0.0351
     26 C         138.4772  144.7432  163.0266 C.2     1  UNL1        0.0070
     27 C         139.7176  145.4321  162.5402 C.2     1  UNL1        0.0436
     28 CL        139.6075  146.6559  161.6798 Cl      1  UNL1       -0.0864
     29 C         141.0682  144.8973  162.9142 C.3     1  UNL1        0.1155
     30 C         141.1783  143.6735  163.7745 C.2     1  UNL1        0.2180
     31 N         142.3637  142.9208  164.3020 N.2     1  UNL1       -0.0385
     32 C         142.7445  140.7333  167.3263 C.ar    1  UNL1       -0.0068
     33 C         142.5438  139.4446  168.0672 C.ar    1  UNL1       -0.0035
     34 C         142.5891  139.4264  169.5665 C.ar    1  UNL1        0.0020
     35 C         142.8353  140.6971  170.3247 C.ar    1  UNL1        0.0296
     36 C         143.0361  141.9857  169.5838 C.ar    1  UNL1        0.1398
     37 F         143.2822  143.2564  170.3420 F       1  UNL1       -0.2042
     38 C         142.9907  142.0039  168.0846 C.ar    1  UNL1        0.0260
@<TRIPOS>BOND
     1    14    15    1
     2    15    16   ar
     3    16    17   ar
     4    17    18   ar
     5    18     6    1
     6     6     7   ar
     7     7     8   ar
     8     8     9    1
     9     8    10   ar
    10    10     2    1
    11     2     3    2
    12     2     4   am
    13     4     1    1
    14    20     1    1
    15    20    32    1
    16    32    33   ar
    17    33    34   ar
    18    34    35   ar
    19    35    36   ar
    20    36    37    1
    21    36    38   ar
    22    20    21    1
    23    21    22    2
    24    22    23    1
    25    23    24    2
    26    24    25    1
    27    24    26    1
    28    26    27    2
    29    27    28    1
    30    27    29    1
    31    29    30    1
    32    30    31    2
    33    10    11   ar
    34    11    12    1
    35    11    13   ar
    36    18    19   ar
    37    19    15   ar
    38    13     6   ar
    39    38    32   ar
    40    31    21    1
    41    30    23    1
    42     4     5    1
@<TRIPOS>MOLECULE
*****
 38 42 0 0 0
SMALL
GASTEIGER

@<TRIPOS>ATOM
      1 C         139.6194  143.4448  164.9626 C.3     1  UNL1        0.1065
      2 C         140.9827  144.2747  162.9126 C.2     1  UNL1        0.2475
      3 O         142.1491  144.5708  163.8081 O.2     1  UNL1       -0.2701
      4 N         139.7178  143.7118  163.4898 N.am    1  UNL1       -0.2999
      5 H         138.9523  143.5174  162.9021 H       1  UNL1        0.1498
      6 C         141.2783  145.0756  158.4943 C.ar    1  UNL1        0.0863
      7 C         142.0648  143.9553  159.1077 C.ar    1  UNL1        0.0308
      8 C         141.9663  143.6883  160.5805 C.ar    1  UNL1        0.0643
      9 CL        142.7528  142.5680  161.1939 Cl      1  UNL1       -0.0820
     10 C         141.0812  144.5417  161.4398 C.ar    1  UNL1        0.0745
     11 C         140.2947  145.6620  160.8264 C.ar    1  UNL1        0.0643
     12 CL        139.4097  146.5153  161.6857 Cl      1  UNL1       -0.0820
     13 C         140.3933  145.9289  159.3536 C.ar    1  UNL1        0.0308
     14 C         142.8948  144.9710  153.4686 C.3     1  UNL1        0.0756
     15 C         142.1197  145.2946  154.7115 C.ar    1  UNL1        0.1613
     16 N         140.9368  146.2126  154.7989 N.ar    1  UNL1       -0.2073
     17 C         140.4775  146.2423  156.2266 C.ar    1  UNL1        0.2013
     18 N         141.3768  145.3426  157.0215 N.ar    1  UNL1       -0.2083
     19 N         142.3917  144.7569  156.0852 N.ar    1  UNL1       -0.1487
     20 C         140.2415  142.2101  165.5442 C.3     1  UNL1        0.1537
     21 C         141.0090  141.2703  164.6623 C.2     1  UNL1        0.3564
     22 N         142.4365  140.8504  164.8524 N.2     1  UNL1       -0.0350
     23 C         142.7934  139.9060  163.7430 C.2     1  UNL1        0.2278
     24 C         144.0614  139.1740  163.4171 C.2     1  UNL1        0.0251
     25 C         145.2683  139.3378  164.2927 C.3     1  UNL1        0.0351
     26 C         144.1226  138.2782  162.2155 C.2     1  UNL1        0.0070
     27 C         142.9158  138.1144  161.3399 C.2     1  UNL1        0.0436
     28 CL        142.9770  137.2185  160.1383 Cl      1  UNL1       -0.0864
     29 C         141.6478  138.8463  161.6658 C.3     1  UNL1        0.1155
     30 C         141.5865  139.7421  162.8674 C.2     1  UNL1        0.2180
     31 N         140.4837  140.5853  163.4356 N.2     1  UNL1       -0.0385
     32 C         140.0962  141.9151  167.0077 C.ar    1  UNL1       -0.0068
     33 C         139.6829  140.5458  167.4594 C.ar    1  UNL1       -0.0035
     34 C         139.5375  140.2507  168.9230 C.ar    1  UNL1        0.0020
     35 C         139.8056  141.3251  169.9348 C.ar    1  UNL1        0.0296
     36 C         140.2189  142.6945  169.4831 C.ar    1  UNL1        0.1398
     37 F         140.4870  143.7689  170.4950 F       1  UNL1       -0.2042
     38 C         140.3643  142.9895  168.0197 C.ar    1  UNL1        0.0260
@<TRIPOS>BOND
     1    14    15    1
     2    15    16   ar
     3    16    17   ar
     4    17    18   ar
     5    18     6    1
     6     6     7   ar
     7     7     8   ar
     8     8     9    1
     9     8    10   ar
    10    10     2    1
    11     2     3    2
    12     2     4   am
    13     4     1    1
    14    20     1    1
    15    20    32    1
    16    32    33   ar
    17    33    34   ar
    18    34    35   ar
    19    35    36   ar
    20    36    37    1
    21    36    38   ar
    22    20    21    1
    23    21    22    2
    24    22    23    1
    25    23    24    2
    26    24    25    1
    27    24    26    1
    28    26    27    2
    29    27    28    1
    30    27    29    1
    31    29    30    1
    32    30    31    2
    33    10    11   ar
    34    11    12    1
    35    11    13   ar
    36    18    19   ar
    37    19    15   ar
    38    13     6   ar
    39    38    32   ar
    40    31    21    1
    41    30    23    1
    42     4     5    1
@<TRIPOS>MOLECULE
*****
 38 42 0 0 0
SMALL
GASTEIGER

@<TRIPOS>ATOM
      1 C         140.1547  143.9385  165.2159 C.3     1  UNL1        0.1065
      2 C         141.2650  144.6272  162.9703 C.2     1  UNL1        0.2475
      3 O         142.4926  145.0665  163.7120 O.2     1  UNL1       -0.2701
      4 N         140.0960  144.0632  163.7222 N.am    1  UNL1       -0.2999
      5 H         139.2904  143.7748  163.2354 H       1  UNL1        0.1498
      6 C         141.0894  145.0014  158.4893 C.ar    1  UNL1        0.0863
      7 C         142.0129  144.0036  159.1230 C.ar    1  UNL1        0.0308
      8 C         142.0714  143.8789  160.6167 C.ar    1  UNL1        0.0643
      9 CL        142.9950  142.8811  161.2502 Cl      1  UNL1       -0.0820
     10 C         141.2065  144.7519  161.4767 C.ar    1  UNL1        0.0745
     11 C         140.2829  145.7497  160.8430 C.ar    1  UNL1        0.0643
     12 CL        139.4180  146.6227  161.7030 Cl      1  UNL1       -0.0820
     13 C         140.2244  145.8744  159.3493 C.ar    1  UNL1        0.0308
     14 C         140.6578  147.0272  153.6323 C.3     1  UNL1        0.0756
     15 C         140.8324  146.0572  154.7632 C.ar    1  UNL1        0.1613
     16 N         141.0487  144.5789  154.6312 N.ar    1  UNL1       -0.2073
     17 C         141.1713  144.0034  156.0110 C.ar    1  UNL1        0.2013
     18 N         141.0308  145.1262  156.9956 N.ar    1  UNL1       -0.2083
     19 N         140.8213  146.3955  156.2245 N.ar    1  UNL1       -0.1487
     20 C         140.8457  142.7646  165.8439 C.3     1  UNL1        0.1537
     21 C         141.2514  141.5932  164.9993 C.2     1  UNL1        0.3564
     22 N         140.4031  140.3966  164.6856 N.2     1  UNL1       -0.0350
     23 C         141.2040  139.4767  163.8125 C.2     1  UNL1        0.2278
     24 C         140.8837  138.1483  163.1940 C.2     1  UNL1        0.0251
     25 C         139.5404  137.5201  163.4197 C.3     1  UNL1        0.0351
     26 C         141.9068  137.4479  162.3496 C.2     1  UNL1        0.0070
     27 C         143.2500  138.0759  162.1238 C.2     1  UNL1        0.0436
     28 CL        144.2731  137.3756  161.2795 Cl      1  UNL1       -0.0864
     29 C         143.5704  139.4044  162.7424 C.3     1  UNL1        0.1155
     30 C         142.5474  140.1048  163.5867 C.2     1  UNL1        0.2180
     31 N         142.5766  141.4129  164.3202 N.2     1  UNL1       -0.0385
     32 C         141.1311  142.7620  167.3165 C.ar    1  UNL1       -0.0068
     33 C         140.1417  143.3586  168.2732 C.ar    1  UNL1       -0.0035
     34 C         140.4270  143.3561  169.7459 C.ar    1  UNL1        0.0020
     35 C         141.7017  142.7569  170.2618 C.ar    1  UNL1        0.0296
     36 C         142.6910  142.1604  169.3051 C.ar    1  UNL1        0.1398
     37 F         143.9657  141.5612  169.8210 F       1  UNL1       -0.2042
     38 C         142.4058  142.1629  167.8325 C.ar    1  UNL1        0.0260
@<TRIPOS>BOND
     1    14    15    1
     2    15    16   ar
     3    16    17   ar
     4    17    18   ar
     5    18     6    1
     6     6     7   ar
     7     7     8   ar
     8     8     9    1
     9     8    10   ar
    10    10     2    1
    11     2     3    2
    12     2     4   am
    13     4     1    1
    14    20     1    1
    15    20    32    1
    16    32    33   ar
    17    33    34   ar
    18    34    35   ar
    19    35    36   ar
    20    36    37    1
    21    36    38   ar
    22    20    21    1
    23    21    22    2
    24    22    23    1
    25    23    24    2
    26    24    25    1
    27    24    26    1
    28    26    27    2
    29    27    28    1
    30    27    29    1
    31    29    30    1
    32    30    31    2
    33    10    11   ar
    34    11    12    1
    35    11    13   ar
    36    18    19   ar
    37    19    15   ar
    38    13     6   ar
    39    38    32   ar
    40    31    21    1
    41    30    23    1
    42     4     5    1
@<TRIPOS>MOLECULE
*****
 38 42 0 0 0
SMALL
GASTEIGER

@<TRIPOS>ATOM
      1 C         142.2932  143.5601  157.1721 C.3     1  UNL1        0.1065
      2 C         143.3046  141.1816  157.4362 C.2     1  UNL1        0.2475
      3 O         144.5154  141.7699  158.0981 O.2     1  UNL1       -0.2701
      4 N         142.1935  142.0767  156.9732 N.am    1  UNL1       -0.2999
      5 H         141.3989  141.6905  156.5388 H       1  UNL1        0.1498
      6 C         143.0058  136.7313  156.8396 C.ar    1  UNL1        0.0863
      7 C         142.5318  137.3497  158.1214 C.ar    1  UNL1        0.0308
      8 C         142.6314  138.8331  158.3202 C.ar    1  UNL1        0.0643
      9 CL        142.1573  139.4514  159.6020 Cl      1  UNL1       -0.0820
     10 C         143.2050  139.6982  157.2373 C.ar    1  UNL1        0.0745
     11 C         143.6790  139.0798  155.9556 C.ar    1  UNL1        0.0643
     12 CL        144.2526  139.9448  154.8727 Cl      1  UNL1       -0.0820
     13 C         143.5794  137.5964  155.7567 C.ar    1  UNL1        0.0308
     14 C         143.9275  131.5441  157.1924 C.3     1  UNL1        0.0756
     15 C         143.3298  132.8636  156.8028 C.ar    1  UNL1        0.1613
     16 N         142.1760  133.0668  155.8662 N.ar    1  UNL1       -0.2073
     17 C         141.9141  134.5403  155.7660 C.ar    1  UNL1        0.2013
     18 N         142.9062  135.2479  156.6407 N.ar    1  UNL1       -0.2083
     19 N         143.7811  134.2117  157.2814 N.ar    1  UNL1       -0.1487
     20 C         141.1319  144.3202  157.7410 C.3     1  UNL1        0.1537
     21 C         140.9742  144.4468  159.2273 C.2     1  UNL1        0.3564
     22 N         142.0881  144.5525  160.2263 N.2     1  UNL1       -0.0350
     23 C         141.4772  144.6610  161.5920 C.2     1  UNL1        0.2278
     24 C         142.0863  144.7900  162.9566 C.2     1  UNL1        0.0251
     25 C         143.5778  144.8286  163.1117 C.3     1  UNL1        0.0351
     26 C         141.2039  144.8804  164.1663 C.2     1  UNL1        0.0070
     27 C         139.7125  144.8418  164.0113 C.2     1  UNL1        0.0436
     28 CL        138.8301  144.9322  165.2210 Cl      1  UNL1       -0.0864
     29 C         139.1034  144.7128  162.6466 C.3     1  UNL1        0.1155
     30 C         139.9857  144.6224  161.4370 C.2     1  UNL1        0.2180
     31 N         139.6748  144.4901  159.9755 N.2     1  UNL1       -0.0385
     32 C         140.1284  144.9536  156.8236 C.ar    1  UNL1       -0.0068
     33 C         140.1019  146.4439  156.6553 C.ar    1  UNL1       -0.0035
     34 C         139.0983  147.0775  155.7379 C.ar    1  UNL1        0.0020
     35 C         138.1212  146.2206  154.9888 C.ar    1  UNL1        0.0296
     36 C         138.1477  144.7303  155.1572 C.ar    1  UNL1        0.1398
     37 F         137.1706  143.8735  154.4081 F       1  UNL1       -0.2042
     38 C         139.1512  144.0968  156.0745 C.ar    1  UNL1        0.0260
@<TRIPOS>BOND
     1    14    15    1
     2    15    16   ar
     3    16    17   ar
     4    17    18   ar
     5    18     6    1
     6     6     7   ar
     7     7     8   ar
     8     8     9    1
     9     8    10   ar
    10    10     2    1
    11     2     3    2
    12     2     4   am
    13     4     1    1
    14    20     1    1
    15    20    32    1
    16    32    33   ar
    17    33    34   ar
    18    34    35   ar
    19    35    36   ar
    20    36    37    1
    21    36    38   ar
    22    20    21    1
    23    21    22    2
    24    22    23    1
    25    23    24    2
    26    24    25    1
    27    24    26    1
    28    26    27    2
    29    27    28    1
    30    27    29    1
    31    29    30    1
    32    30    31    2
    33    10    11   ar
    34    11    12    1
    35    11    13   ar
    36    18    19   ar
    37    19    15   ar
    38    13     6   ar
    39    38    32   ar
    40    31    21    1
    41    30    23    1
    42     4     5    1
@<TRIPOS>MOLECULE
*****
 38 42 0 0 0
SMALL
GASTEIGER

@<TRIPOS>ATOM
      1 C         143.7935  140.0594  165.0566 C.3     1  UNL1        0.1065
      2 C         143.2937  140.2694  162.5157 C.2     1  UNL1        0.2475
      3 O         141.9293  139.6861  162.7359 O.2     1  UNL1       -0.2701
      4 N         144.2258  140.4560  163.6761 N.am    1  UNL1       -0.2999
      5 H         145.1213  140.8388  163.5316 H       1  UNL1        0.1498
      6 C         144.5904  141.4591  158.3741 C.ar    1  UNL1        0.0863
      7 C         144.6786  142.4461  159.5001 C.ar    1  UNL1        0.0308
      8 C         144.2464  142.0495  160.8807 C.ar    1  UNL1        0.0643
      9 CL        144.3346  143.0366  162.0066 Cl      1  UNL1       -0.0820
     10 C         143.7259  140.6659  161.1352 C.ar    1  UNL1        0.0745
     11 C         143.6377  139.6789  160.0091 C.ar    1  UNL1        0.0643
     12 CL        143.1173  138.2953  160.2637 Cl      1  UNL1       -0.0820
     13 C         144.0699  140.0755  158.6286 C.ar    1  UNL1        0.0308
     14 C         147.5792  142.9113  154.2705 C.3     1  UNL1        0.0756
     15 C         146.3962  142.5230  155.1073 C.ar    1  UNL1        0.1613
     16 N         144.9787  142.4082  154.6306 N.ar    1  UNL1       -0.2073
     17 C         144.1297  141.9957  155.7963 C.ar    1  UNL1        0.2013
     18 N         145.0226  141.8555  156.9934 N.ar    1  UNL1       -0.2083
     19 N         146.4233  142.1815  156.5676 N.ar    1  UNL1       -0.1487
     20 C         142.8568  140.9387  165.8307 C.3     1  UNL1        0.1537
     21 C         141.9680  141.9073  165.1083 C.2     1  UNL1        0.3564
     22 N         140.4721  141.8360  165.0225 N.2     1  UNL1       -0.0350
     23 C         139.9987  143.0019  164.2060 C.2     1  UNL1        0.2278
     24 C         138.6273  143.4448  163.7897 C.2     1  UNL1        0.0251
     25 C         137.4241  142.6530  164.2085 C.3     1  UNL1        0.0351
     26 C         138.4593  144.6795  162.9546 C.2     1  UNL1        0.0070
     27 C         139.6624  145.4712  162.5359 C.2     1  UNL1        0.0436
     28 CL        139.4944  146.7059  161.7008 Cl      1  UNL1       -0.0864
     29 C         141.0338  145.0283  162.9521 C.3     1  UNL1        0.1155
     30 C         141.2019  143.7936  163.7872 C.2     1  UNL1        0.2180
     31 N         142.4190  143.1172  164.3449 N.2     1  UNL1       -0.0385
     32 C         142.8089  140.8495  167.3273 C.ar    1  UNL1       -0.0068
     33 C         142.5816  139.5246  167.9928 C.ar    1  UNL1       -0.0035
     34 C         142.5337  139.4353  169.4894 C.ar    1  UNL1        0.0020
     35 C         142.7131  140.6710  170.3205 C.ar    1  UNL1        0.0296
     36 C         142.9403  141.9960  169.6551 C.ar    1  UNL1        0.1398
     37 F         143.1197  143.2317  170.4862 F       1  UNL1       -0.2042
     38 C         142.9883  142.0853  168.1585 C.ar    1  UNL1        0.0260
@<TRIPOS>BOND
     1    14    15    1
     2    15    16   ar
     3    16    17   ar
     4    17    18   ar
     5    18     6    1
     6     6     7   ar
     7     7     8   ar
     8     8     9    1
     9     8    10   ar
    10    10     2    1
    11     2     3    2
    12     2     4   am
    13     4     1    1
    14    20     1    1
    15    20    32    1
    16    32    33   ar
    17    33    34   ar
    18    34    35   ar
    19    35    36   ar
    20    36    37    1
    21    36    38   ar
    22    20    21    1
    23    21    22    2
    24    22    23    1
    25    23    24    2
    26    24    25    1
    27    24    26    1
    28    26    27    2
    29    27    28    1
    30    27    29    1
    31    29    30    1
    32    30    31    2
    33    10    11   ar
    34    11    12    1
    35    11    13   ar
    36    18    19   ar
    37    19    15   ar
    38    13     6   ar
    39    38    32   ar
    40    31    21    1
    41    30    23    1
    42     4     5    1
@<TRIPOS>MOLECULE
*****
 38 42 0 0 0
SMALL
GASTEIGER

@<TRIPOS>ATOM
      1 C         139.5767  143.4843  164.9844 C.3     1  UNL1        0.1065
      2 C         140.9257  144.2118  162.8866 C.2     1  UNL1        0.2475
      3 O         142.1526  144.3788  163.7334 O.2     1  UNL1       -0.2701
      4 N         139.6378  143.7645  163.5120 N.am    1  UNL1       -0.2999
      5 H         138.8326  143.6549  162.9562 H       1  UNL1        0.1498
      6 C         141.1093  145.0526  158.4696 C.ar    1  UNL1        0.0863
      7 C         140.3241  145.9565  159.3732 C.ar    1  UNL1        0.0308
      8 C         140.2629  145.6762  160.8455 C.ar    1  UNL1        0.0643
      9 CL        139.4777  146.5801  161.7489 Cl      1  UNL1       -0.0820
     10 C         140.9869  144.4920  161.4143 C.ar    1  UNL1        0.0745
     11 C         141.7721  143.5881  160.5107 C.ar    1  UNL1        0.0643
     12 CL        142.4961  142.4040  161.0795 Cl      1  UNL1       -0.0820
     13 C         141.8333  143.8684  159.0384 C.ar    1  UNL1        0.0308
     14 C         140.3970  147.3226  153.7557 C.3     1  UNL1        0.0756
     15 C         140.8432  146.3761  154.8306 C.ar    1  UNL1        0.1613
     16 N         141.6865  145.1516  154.6327 N.ar    1  UNL1       -0.2073
     17 C         141.8888  144.5067  155.9718 C.ar    1  UNL1        0.2013
     18 N         141.1705  145.3328  156.9973 N.ar    1  UNL1       -0.2083
     19 N         140.5243  146.4881  156.2920 N.ar    1  UNL1       -0.1487
     20 C         140.1193  142.1948  165.5255 C.3     1  UNL1        0.1537
     21 C         140.7103  141.1796  164.5927 C.2     1  UNL1        0.3564
     22 N         139.9481  140.3161  163.6317 N.2     1  UNL1       -0.0350
     23 C         140.9341  139.4526  162.9022 C.2     1  UNL1        0.2278
     24 C         140.7601  138.4085  161.8394 C.2     1  UNL1        0.0251
     25 C         139.3886  138.0787  161.3292 C.3     1  UNL1        0.0351
     26 C         141.9578  137.6942  161.2866 C.2     1  UNL1        0.0070
     27 C         143.3293  138.0240  161.7967 C.2     1  UNL1        0.0436
     28 CL        144.5270  137.3097  161.2440 Cl      1  UNL1       -0.0864
     29 C         143.5032  139.0680  162.8596 C.3     1  UNL1        0.1155
     30 C         142.3056  139.7823  163.4124 C.2     1  UNL1        0.2180
     31 N         142.1673  140.8497  164.4571 N.2     1  UNL1       -0.0385
     32 C         140.0709  141.9205  166.9994 C.ar    1  UNL1       -0.0068
     33 C         139.7177  140.5498  167.4960 C.ar    1  UNL1       -0.0035
     34 C         139.6693  140.2754  168.9699 C.ar    1  UNL1        0.0020
     35 C         139.9740  141.3718  169.9472 C.ar    1  UNL1        0.0296
     36 C         140.3272  142.7424  169.4507 C.ar    1  UNL1        0.1398
     37 F         140.6319  143.8388  170.4280 F       1  UNL1       -0.2042
     38 C         140.3756  143.0168  167.9768 C.ar    1  UNL1        0.0260
@<TRIPOS>BOND
     1    14    15    1
     2    15    16   ar
     3    16    17   ar
     4    17    18   ar
     5    18     6    1
     6     6     7   ar
     7     7     8   ar
     8     8     9    1
     9     8    10   ar
    10    10     2    1
    11     2     3    2
    12     2     4   am
    13     4     1    1
    14    20     1    1
    15    20    32    1
    16    32    33   ar
    17    33    34   ar
    18    34    35   ar
    19    35    36   ar
    20    36    37    1
    21    36    38   ar
    22    20    21    1
    23    21    22    2
    24    22    23    1
    25    23    24    2
    26    24    25    1
    27    24    26    1
    28    26    27    2
    29    27    28    1
    30    27    29    1
    31    29    30    1
    32    30    31    2
    33    10    11   ar
    34    11    12    1
    35    11    13   ar
    36    18    19   ar
    37    19    15   ar
    38    13     6   ar
    39    38    32   ar
    40    31    21    1
    41    30    23    1
    42     4     5    1
