@<TRIPOS>MOLECULE
*****
 38 42 0 0 0
SMALL
GASTEIGER

@<TRIPOS>ATOM
      1 N         142.3592  141.4433  164.7054 N.ar    1  UNL1       -0.3063
      2 C         141.2797  142.0890  165.5226 C.ar    1  UNL1        0.1240
      3 C         140.7228  143.2356  164.7319 C.ar    1  UNL1        0.1156
      4 C         141.4580  143.2984  163.4259 C.ar    1  UNL1        0.0966
      5 C         142.4693  142.1908  163.4096 C.ar    1  UNL1        0.1349
      6 C         143.3600  142.0058  162.2169 C.ar    1  UNL1        0.2819
      7 O         144.3713  140.8981  162.2006 O.2     1  UNL1       -0.2652
      8 N         143.2393  142.9286  161.0405 N.ar    1  UNL1       -0.2417
      9 C         142.2279  144.0363  161.0568 C.ar    1  UNL1        0.3342
     10 O         142.1072  144.9590  159.8804 O.2     1  UNL1       -0.2462
     11 N         141.3373  144.2212  162.2495 N.ar    1  UNL1       -0.2770
     12 C         140.3260  145.3288  162.2658 C.3     1  UNL1        0.1351
     13 N         140.8352  141.6630  166.8905 N.pl3   1  UNL1       -0.2925
     14 C         139.8255  140.5545  166.9308 C.3     1  UNL1        0.0936
     15 C         139.1903  139.9110  168.1277 C.3     1  UNL1        0.0385
     16 C         139.4081  140.2171  169.5799 C.3     1  UNL1        0.0704
     17 N         140.3148  141.2423  170.1939 N.3     1  UNL1       -0.2960
     18 C         141.2276  142.2146  169.5073 C.3     1  UNL1        0.0903
     19 C         141.4592  142.4018  168.0371 C.3     1  UNL1        0.1092
     20 H         140.9279  140.7062  170.8080 H       1  UNL1        0.1233
     21 C         139.6236  144.1574  165.1700 C.1     1  UNL1        0.1047
     22 N         138.5243  145.0792  165.6082 N.1     1  UNL1       -0.1907
     23 C         143.1836  140.2582  165.1126 C.3     1  UNL1        0.1332
     24 C         141.1963  136.8547  164.6471 C.3     1  UNL1        0.0261
     25 C         141.8640  138.1605  164.3326 C.2     1  UNL1       -0.0460
     26 C         141.8799  138.6745  162.9234 C.3     1  UNL1        0.0261
     27 C         142.5158  138.9524  165.4271 C.2     1  UNL1       -0.0102
     28 C         144.1299  142.7437  159.8477 C.3     1  UNL1        0.1593
     29 C         143.8364  141.6595  158.8535 C.ar    1  UNL1        0.0821
     30 N         142.6451  140.7685  159.0451 N.ar    1  UNL1       -0.2462
     31 C         142.3517  139.6843  158.0509 C.ar    1  UNL1        0.0985
     32 C         143.2496  139.4911  156.8651 C.ar    1  UNL1        0.0207
     33 C         144.4411  140.3821  156.6734 C.ar    1  UNL1        0.0027
     34 C         145.3390  140.1889  155.4875 C.ar    1  UNL1        0.0001
     35 C         146.5304  141.0799  155.2959 C.ar    1  UNL1        0.0000
     36 C         146.8238  142.1641  156.2901 C.ar    1  UNL1        0.0000
     37 C         145.9258  142.3573  157.4760 C.ar    1  UNL1        0.0012
     38 C         144.7345  141.4663  157.6676 C.ar    1  UNL1        0.0155
@<TRIPOS>BOND
     1    24    25    1
     2    25    26    1
     3    25    27    2
     4    27    23    1
     5    23     1    1
     6     1     2   ar
     7     2    13    1
     8    13    14    1
     9    14    15    1
    10    15    16    1
    11    16    17    1
    12    17    18    1
    13    18    19    1
    14     2     3   ar
    15     3    21    1
    16    21    22    3
    17     3     4   ar
    18     4     5   ar
    19     5     6   ar
    20     6     7    2
    21     6     8   ar
    22     8    28    1
    23    28    29    1
    24    29    30   ar
    25    30    31   ar
    26    31    32   ar
    27    32    33   ar
    28    33    34   ar
    29    34    35   ar
    30    35    36   ar
    31    36    37   ar
    32    37    38   ar
    33     8     9   ar
    34     9    10    2
    35     9    11   ar
    36    11    12    1
    37     5     1   ar
    38    38    29   ar
    39    19    13    1
    40    11     4   ar
    41    38    33   ar
    42    17    20    1
@<TRIPOS>MOLECULE
*****
 38 42 0 0 0
SMALL
GASTEIGER

@<TRIPOS>ATOM
      1 N         140.6320  139.1113  162.9487 N.ar    1  UNL1       -0.3063
      2 C         139.8570  140.0931  163.7767 C.ar    1  UNL1        0.1240
      3 C         139.4705  141.2417  162.8927 C.ar    1  UNL1        0.1156
      4 C         140.0067  140.9698  161.5185 C.ar    1  UNL1        0.0966
      5 C         140.7245  139.6532  161.5531 C.ar    1  UNL1        0.1349
      6 C         141.3697  139.1178  160.3093 C.ar    1  UNL1        0.2819
      7 O         142.0876  137.8012  160.3439 O.2     1  UNL1       -0.2652
      8 N         141.2971  139.8991  159.0308 N.ar    1  UNL1       -0.2417
      9 C         140.5792  141.2157  158.9963 C.ar    1  UNL1        0.3342
     10 O         140.5066  141.9970  157.7178 O.2     1  UNL1       -0.2462
     11 N         139.9341  141.7511  160.2401 N.ar    1  UNL1       -0.2770
     12 C         139.2162  143.0677  160.2054 C.3     1  UNL1        0.1351
     13 N         139.5264  139.9511  165.2329 N.pl3   1  UNL1       -0.2925
     14 C         140.3756  140.7529  166.1742 C.3     1  UNL1        0.0936
     15 C         140.2985  140.8278  167.6703 C.3     1  UNL1        0.0385
     16 C         139.3532  140.1193  168.5947 C.3     1  UNL1        0.0704
     17 N         138.2516  139.1610  168.2513 N.3     1  UNL1       -0.2960
     18 C         137.8231  138.6745  166.8986 C.3     1  UNL1        0.0903
     19 C         138.3904  139.0261  165.5553 C.3     1  UNL1        0.1092
     20 H         137.4124  139.5834  168.6485 H       1  UNL1        0.1233
     21 C         138.6857  142.4500  163.3098 C.1     1  UNL1        0.1047
     22 N         137.9008  143.6584  163.7268 N.1     1  UNL1       -0.1907
     23 C         141.2126  137.8153  163.4316 C.3     1  UNL1        0.1332
     24 C         143.6329  138.3322  166.5340 C.3     1  UNL1        0.0261
     25 C         143.0617  138.4288  165.1504 C.2     1  UNL1       -0.0460
     26 C         143.7686  139.2358  164.1019 C.3     1  UNL1        0.0261
     27 C         141.7837  137.7186  164.8152 C.2     1  UNL1       -0.0102
     28 C         141.9423  139.3637  157.7870 C.3     1  UNL1        0.1593
     29 C         141.1502  138.5154  156.8368 C.ar    1  UNL1        0.0821
     30 N         139.9084  139.0636  156.1985 N.ar    1  UNL1       -0.2462
     31 C         139.1163  138.2153  155.2483 C.ar    1  UNL1        0.0985
     32 C         139.5659  136.8187  154.9364 C.ar    1  UNL1        0.0207
     33 C         140.8077  136.2704  155.5747 C.ar    1  UNL1        0.0027
     34 C         141.2573  134.8738  155.2628 C.ar    1  UNL1        0.0001
     35 C         142.4991  134.3255  155.9011 C.ar    1  UNL1        0.0000
     36 C         143.2912  135.1739  156.8514 C.ar    1  UNL1        0.0000
     37 C         142.8415  136.5705  157.1633 C.ar    1  UNL1        0.0012
     38 C         141.5998  137.1187  156.5249 C.ar    1  UNL1        0.0155
@<TRIPOS>BOND
     1    24    25    1
     2    25    26    1
     3    25    27    2
     4    27    23    1
     5    23     1    1
     6     1     2   ar
     7     2    13    1
     8    13    14    1
     9    14    15    1
    10    15    16    1
    11    16    17    1
    12    17    18    1
    13    18    19    1
    14     2     3   ar
    15     3    21    1
    16    21    22    3
    17     3     4   ar
    18     4     5   ar
    19     5     6   ar
    20     6     7    2
    21     6     8   ar
    22     8    28    1
    23    28    29    1
    24    29    30   ar
    25    30    31   ar
    26    31    32   ar
    27    32    33   ar
    28    33    34   ar
    29    34    35   ar
    30    35    36   ar
    31    36    37   ar
    32    37    38   ar
    33     8     9   ar
    34     9    10    2
    35     9    11   ar
    36    11    12    1
    37     5     1   ar
    38    38    29   ar
    39    19    13    1
    40    11     4   ar
    41    38    33   ar
    42    17    20    1
@<TRIPOS>MOLECULE
*****
 38 42 0 0 0
SMALL
GASTEIGER

@<TRIPOS>ATOM
      1 N         143.0515  141.7525  160.5343 N.ar    1  UNL1       -0.3063
      2 C         142.8972  141.7096  159.0428 C.ar    1  UNL1        0.1240
      3 C         141.4656  142.0157  158.7160 C.ar    1  UNL1        0.1156
      4 C         140.7352  142.2478  160.0054 C.ar    1  UNL1        0.0966
      5 C         141.7153  142.0852  161.1291 C.ar    1  UNL1        0.1349
      6 C         141.2645  142.2610  162.5489 C.ar    1  UNL1        0.2819
      7 O         142.2446  142.0984  163.6727 O.2     1  UNL1       -0.2652
      8 N         139.8334  142.5995  162.8450 N.ar    1  UNL1       -0.2417
      9 C         138.8533  142.7621  161.7211 C.ar    1  UNL1        0.3342
     10 O         137.4223  143.1006  162.0171 O.2     1  UNL1       -0.2462
     11 N         139.3041  142.5863  160.3014 N.ar    1  UNL1       -0.2770
     12 C         138.3240  142.7489  159.1776 C.3     1  UNL1        0.1351
     13 N         143.9838  141.4126  158.0522 N.pl3   1  UNL1       -0.2925
     14 C         145.0650  142.4465  157.9428 C.3     1  UNL1        0.0936
     15 C         146.2749  142.4443  157.0562 C.3     1  UNL1        0.0385
     16 C         146.7024  141.4075  156.0600 C.3     1  UNL1        0.0704
     17 N         146.0256  140.1170  155.7044 N.3     1  UNL1       -0.2960
     18 C         144.7541  139.5445  156.2572 C.3     1  UNL1        0.0903
     19 C         143.8454  140.1211  157.3021 C.3     1  UNL1        0.1092
     20 H         146.7288  139.4009  155.8869 H       1  UNL1        0.1233
     21 C         140.8692  142.0786  157.3411 C.1     1  UNL1        0.1047
     22 N         140.2726  142.1415  155.9662 N.1     1  UNL1       -0.1907
     23 C         144.3194  141.5061  161.2969 C.3     1  UNL1        0.1332
     24 C         145.2142  139.2843  164.4613 C.3     1  UNL1        0.0261
     25 C         145.1089  140.4655  163.5428 C.2     1  UNL1       -0.0460
     26 C         145.6880  141.7875  163.9518 C.3     1  UNL1        0.0261
     27 C         144.4247  140.3249  162.2154 C.2     1  UNL1       -0.0102
     28 C         139.3826  142.7753  164.2647 C.3     1  UNL1        0.1593
     29 C         139.1470  141.5738  165.1311 C.ar    1  UNL1        0.0821
     30 N         138.3200  140.4313  164.6204 N.ar    1  UNL1       -0.2462
     31 C         138.0845  139.2297  165.4868 C.ar    1  UNL1        0.0985
     32 C         138.6760  139.1706  166.8640 C.ar    1  UNL1        0.0207
     33 C         139.5030  140.3130  167.3748 C.ar    1  UNL1        0.0027
     34 C         140.0945  140.2538  168.7519 C.ar    1  UNL1        0.0001
     35 C         140.9215  141.3962  169.2626 C.ar    1  UNL1        0.0000
     36 C         141.1571  142.5978  168.3962 C.ar    1  UNL1        0.0000
     37 C         140.5656  142.6570  167.0191 C.ar    1  UNL1        0.0012
     38 C         139.7386  141.5146  166.5083 C.ar    1  UNL1        0.0155
@<TRIPOS>BOND
     1    24    25    1
     2    25    26    1
     3    25    27    2
     4    27    23    1
     5    23     1    1
     6     1     2   ar
     7     2    13    1
     8    13    14    1
     9    14    15    1
    10    15    16    1
    11    16    17    1
    12    17    18    1
    13    18    19    1
    14     2     3   ar
    15     3    21    1
    16    21    22    3
    17     3     4   ar
    18     4     5   ar
    19     5     6   ar
    20     6     7    2
    21     6     8   ar
    22     8    28    1
    23    28    29    1
    24    29    30   ar
    25    30    31   ar
    26    31    32   ar
    27    32    33   ar
    28    33    34   ar
    29    34    35   ar
    30    35    36   ar
    31    36    37   ar
    32    37    38   ar
    33     8     9   ar
    34     9    10    2
    35     9    11   ar
    36    11    12    1
    37     5     1   ar
    38    38    29   ar
    39    19    13    1
    40    11     4   ar
    41    38    33   ar
    42    17    20    1
@<TRIPOS>MOLECULE
*****
 38 42 0 0 0
SMALL
GASTEIGER

@<TRIPOS>ATOM
      1 N         143.0675  141.8760  160.0914 N.ar    1  UNL1       -0.3063
      2 C         143.3095  142.4255  158.7168 C.ar    1  UNL1        0.1240
      3 C         142.4156  143.6154  158.5293 C.ar    1  UNL1        0.1156
      4 C         141.6212  143.8013  159.7881 C.ar    1  UNL1        0.0966
      5 C         142.0242  142.7263  160.7534 C.ar    1  UNL1        0.1349
      6 C         141.3889  142.6605  162.1107 C.ar    1  UNL1        0.2819
      7 O         141.7919  141.5856  163.0761 O.2     1  UNL1       -0.2652
      8 N         140.3507  143.6698  162.5026 N.ar    1  UNL1       -0.2417
      9 C         139.9478  144.7449  161.5371 C.ar    1  UNL1        0.3342
     10 O         138.9096  145.7541  161.9290 O.2     1  UNL1       -0.2462
     11 N         140.5831  144.8106  160.1799 N.ar    1  UNL1       -0.2770
     12 C         140.1801  145.8856  159.2146 C.3     1  UNL1        0.1351
     13 N         144.2756  141.8807  157.7069 N.pl3   1  UNL1       -0.2925
     14 C         143.7773  140.7295  156.8845 C.3     1  UNL1        0.0936
     15 C         144.4925  139.9724  155.8051 C.3     1  UNL1        0.0385
     16 C         145.8829  140.1796  155.2815 C.3     1  UNL1        0.0704
     17 N         146.9013  141.1949  155.7080 N.3     1  UNL1       -0.2960
     18 C         146.7809  142.2539  156.7634 C.3     1  UNL1        0.0903
     19 C         145.6123  142.5592  157.6531 C.3     1  UNL1        0.1092
     20 H         147.1230  141.7084  154.8550 H       1  UNL1        0.1233
     21 C         142.3309  144.4695  157.2991 C.1     1  UNL1        0.1047
     22 N         142.2463  145.3235  156.0689 N.1     1  UNL1       -0.1907
     23 C         143.7493  140.6853  160.6975 C.3     1  UNL1        0.1332
     24 C         145.2580  139.9070  164.2847 C.3     1  UNL1        0.0261
     25 C         144.4779  139.7574  163.0123 C.2     1  UNL1       -0.0460
     26 C         143.6463  138.5304  162.7822 C.3     1  UNL1        0.0261
     27 C         144.5294  140.8348  161.9699 C.2     1  UNL1       -0.0102
     28 C         139.7155  143.6041  163.8598 C.3     1  UNL1        0.1593
     29 C         139.2493  142.2875  164.4067 C.ar    1  UNL1        0.0821
     30 N         138.4080  141.3792  163.5599 N.ar    1  UNL1       -0.2462
     31 C         137.9418  140.0625  164.1068 C.ar    1  UNL1        0.0985
     32 C         138.3168  139.6542  165.5006 C.ar    1  UNL1        0.0207
     33 C         139.1580  140.5626  166.3475 C.ar    1  UNL1        0.0027
     34 C         139.5330  140.1543  167.7413 C.ar    1  UNL1        0.0001
     35 C         140.3743  141.0626  168.5881 C.ar    1  UNL1        0.0000
     36 C         140.8405  142.3793  168.0412 C.ar    1  UNL1        0.0000
     37 C         140.4655  142.7876  166.6474 C.ar    1  UNL1        0.0012
     38 C         139.6243  141.8792  165.8006 C.ar    1  UNL1        0.0155
@<TRIPOS>BOND
     1    24    25    1
     2    25    26    1
     3    25    27    2
     4    27    23    1
     5    23     1    1
     6     1     2   ar
     7     2    13    1
     8    13    14    1
     9    14    15    1
    10    15    16    1
    11    16    17    1
    12    17    18    1
    13    18    19    1
    14     2     3   ar
    15     3    21    1
    16    21    22    3
    17     3     4   ar
    18     4     5   ar
    19     5     6   ar
    20     6     7    2
    21     6     8   ar
    22     8    28    1
    23    28    29    1
    24    29    30   ar
    25    30    31   ar
    26    31    32   ar
    27    32    33   ar
    28    33    34   ar
    29    34    35   ar
    30    35    36   ar
    31    36    37   ar
    32    37    38   ar
    33     8     9   ar
    34     9    10    2
    35     9    11   ar
    36    11    12    1
    37     5     1   ar
    38    38    29   ar
    39    19    13    1
    40    11     4   ar
    41    38    33   ar
    42    17    20    1
@<TRIPOS>MOLECULE
*****
 38 42 0 0 0
SMALL
GASTEIGER

@<TRIPOS>ATOM
      1 N         139.4005  141.3372  163.2225 N.ar    1  UNL1       -0.3063
      2 C         140.2688  140.6992  164.2661 C.ar    1  UNL1        0.1240
      3 C         141.5192  140.2133  163.5949 C.ar    1  UNL1        0.1156
      4 C         141.4237  140.5510  162.1365 C.ar    1  UNL1        0.0966
      5 C         140.1143  141.2456  161.9064 C.ar    1  UNL1        0.1349
      6 C         139.7410  141.7049  160.5281 C.ar    1  UNL1        0.2819
      7 O         138.4316  142.3995  160.2980 O.2     1  UNL1       -0.2652
      8 N         140.6771  141.4697  159.3799 N.ar    1  UNL1       -0.2417
      9 C         141.9866  140.7751  159.6101 C.ar    1  UNL1        0.3342
     10 O         142.9228  140.5399  158.4619 O.2     1  UNL1       -0.2462
     11 N         142.3598  140.3158  160.9884 N.ar    1  UNL1       -0.2770
     12 C         143.6692  139.6212  161.2185 C.3     1  UNL1        0.1351
     13 N         139.9438  140.5698  165.7247 N.pl3   1  UNL1       -0.2925
     14 C         140.6608  141.5195  166.6380 C.3     1  UNL1        0.0936
     15 C         140.5559  141.6419  168.1293 C.3     1  UNL1        0.0385
     16 C         139.7080  140.8446  169.0757 C.3     1  UNL1        0.0704
     17 N         138.7557  139.7283  168.7645 N.3     1  UNL1       -0.2960
     18 C         138.4161  139.1334  167.4301 C.3     1  UNL1        0.0903
     19 C         138.9448  139.5079  166.0772 C.3     1  UNL1        0.1092
     20 H         137.8609  140.0439  169.1388 H       1  UNL1        0.1233
     21 C         142.6641  139.5128  164.2645 C.1     1  UNL1        0.1047
     22 N         143.8091  138.8121  164.9340 N.1     1  UNL1       -0.1907
     23 C         138.0547  141.9578  163.4543 C.3     1  UNL1        0.1332
     24 C         138.2647  145.1213  165.8414 C.3     1  UNL1        0.0261
     25 C         138.4809  144.2171  164.6643 C.2     1  UNL1       -0.0460
     26 C         139.3395  144.6680  163.5199 C.3     1  UNL1        0.0261
     27 C         137.8386  142.8620  164.6315 C.2     1  UNL1       -0.0102
     28 C         140.3039  141.9290  158.0017 C.3     1  UNL1        0.1593
     29 C         140.5417  143.3534  157.5957 C.ar    1  UNL1        0.0821
     30 N         141.7616  144.0781  158.0820 N.ar    1  UNL1       -0.2462
     31 C         141.9994  145.5025  157.6760 C.ar    1  UNL1        0.0985
     32 C         141.0173  146.2020  156.7838 C.ar    1  UNL1        0.0207
     33 C         139.7973  145.4772  156.2974 C.ar    1  UNL1        0.0027
     34 C         138.8153  146.1767  155.4051 C.ar    1  UNL1        0.0001
     35 C         137.5954  145.4519  154.9189 C.ar    1  UNL1        0.0000
     36 C         137.3576  144.0276  155.3248 C.ar    1  UNL1        0.0000
     37 C         138.3397  143.3281  156.2171 C.ar    1  UNL1        0.0012
     38 C         139.5595  144.0529  156.7034 C.ar    1  UNL1        0.0155
@<TRIPOS>BOND
     1    24    25    1
     2    25    26    1
     3    25    27    2
     4    27    23    1
     5    23     1    1
     6     1     2   ar
     7     2    13    1
     8    13    14    1
     9    14    15    1
    10    15    16    1
    11    16    17    1
    12    17    18    1
    13    18    19    1
    14     2     3   ar
    15     3    21    1
    16    21    22    3
    17     3     4   ar
    18     4     5   ar
    19     5     6   ar
    20     6     7    2
    21     6     8   ar
    22     8    28    1
    23    28    29    1
    24    29    30   ar
    25    30    31   ar
    26    31    32   ar
    27    32    33   ar
    28    33    34   ar
    29    34    35   ar
    30    35    36   ar
    31    36    37   ar
    32    37    38   ar
    33     8     9   ar
    34     9    10    2
    35     9    11   ar
    36    11    12    1
    37     5     1   ar
    38    38    29   ar
    39    19    13    1
    40    11     4   ar
    41    38    33   ar
    42    17    20    1
@<TRIPOS>MOLECULE
*****
 38 42 0 0 0
SMALL
GASTEIGER

@<TRIPOS>ATOM
      1 N         142.0800  140.2517  164.8001 N.ar    1  UNL1       -0.3063
      2 C         142.3646  141.6245  165.3334 C.ar    1  UNL1        0.1240
      3 C         142.9390  142.4455  164.2172 C.ar    1  UNL1        0.1156
      4 C         143.0094  141.5801  162.9940 C.ar    1  UNL1        0.0966
      5 C         142.4784  140.2243  163.3543 C.ar    1  UNL1        0.1349
      6 C         142.4264  139.1399  162.3192 C.ar    1  UNL1        0.2819
      7 O         141.8955  137.7840  162.6795 O.2     1  UNL1       -0.2652
      8 N         142.9053  139.4113  160.9239 N.ar    1  UNL1       -0.2417
      9 C         143.4363  140.7672  160.5636 C.ar    1  UNL1        0.3342
     10 O         143.9152  141.0387  159.1683 O.2     1  UNL1       -0.2462
     11 N         143.4883  141.8516  161.5987 N.ar    1  UNL1       -0.2770
     12 C         144.0192  143.2074  161.2384 C.3     1  UNL1        0.1351
     13 N         142.1182  142.0938  166.7367 N.pl3   1  UNL1       -0.2925
     14 C         140.7503  142.6467  167.0072 C.3     1  UNL1        0.0936
     15 C         140.1984  143.1905  168.2916 C.3     1  UNL1        0.0385
     16 C         140.8784  143.3158  169.6228 C.3     1  UNL1        0.0704
     17 N         142.2779  142.9282  169.9983 N.3     1  UNL1       -0.2960
     18 C         143.3432  142.3195  169.1354 C.3     1  UNL1        0.0903
     19 C         143.2722  141.9482  167.6838 C.3     1  UNL1        0.1092
     20 H         142.1625  142.2670  170.7664 H       1  UNL1        0.1233
     21 C         143.3678  143.8800  164.3081 C.1     1  UNL1        0.1047
     22 N         143.7966  145.3146  164.3992 N.1     1  UNL1       -0.1907
     23 C         141.4989  139.1072  165.5763 C.3     1  UNL1        0.1332
     24 C         137.7249  138.7418  166.7482 C.3     1  UNL1        0.0261
     25 C         138.9911  138.5519  165.9668 C.2     1  UNL1       -0.0460
     26 C         139.0156  137.6166  164.7943 C.3     1  UNL1        0.0261
     27 C         140.2327  139.2971  166.3578 C.2     1  UNL1       -0.0102
     28 C         142.8533  138.3269  159.8888 C.3     1  UNL1        0.1593
     29 C         141.7557  138.3180  158.8665 C.ar    1  UNL1        0.0821
     30 N         140.5940  139.2566  159.0051 N.ar    1  UNL1       -0.2462
     31 C         139.4964  139.2477  157.9827 C.ar    1  UNL1        0.0985
     32 C         139.5605  138.3000  156.8218 C.ar    1  UNL1        0.0207
     33 C         140.7223  137.3613  156.6831 C.ar    1  UNL1        0.0027
     34 C         140.7864  136.4137  155.5222 C.ar    1  UNL1        0.0001
     35 C         141.9481  135.4750  155.3836 C.ar    1  UNL1        0.0000
     36 C         143.0457  135.4840  156.4059 C.ar    1  UNL1        0.0000
     37 C         142.9816  136.4316  157.5669 C.ar    1  UNL1        0.0012
     38 C         141.8199  137.3703  157.7055 C.ar    1  UNL1        0.0155
@<TRIPOS>BOND
     1    24    25    1
     2    25    26    1
     3    25    27    2
     4    27    23    1
     5    23     1    1
     6     1     2   ar
     7     2    13    1
     8    13    14    1
     9    14    15    1
    10    15    16    1
    11    16    17    1
    12    17    18    1
    13    18    19    1
    14     2     3   ar
    15     3    21    1
    16    21    22    3
    17     3     4   ar
    18     4     5   ar
    19     5     6   ar
    20     6     7    2
    21     6     8   ar
    22     8    28    1
    23    28    29    1
    24    29    30   ar
    25    30    31   ar
    26    31    32   ar
    27    32    33   ar
    28    33    34   ar
    29    34    35   ar
    30    35    36   ar
    31    36    37   ar
    32    37    38   ar
    33     8     9   ar
    34     9    10    2
    35     9    11   ar
    36    11    12    1
    37     5     1   ar
    38    38    29   ar
    39    19    13    1
    40    11     4   ar
    41    38    33   ar
    42    17    20    1
@<TRIPOS>MOLECULE
*****
 38 42 0 0 0
SMALL
GASTEIGER

@<TRIPOS>ATOM
      1 N         140.9579  139.4696  158.2925 N.ar    1  UNL1       -0.3063
      2 C         141.7323  138.9131  157.1346 C.ar    1  UNL1        0.1240
      3 C         142.4760  140.0440  156.4881 C.ar    1  UNL1        0.1156
      4 C         142.1613  141.2993  157.2464 C.ar    1  UNL1        0.0966
      5 C         141.2231  140.9443  158.3615 C.ar    1  UNL1        0.1349
      6 C         140.7313  142.0098  159.2959 C.ar    1  UNL1        0.2819
      7 O         139.7931  141.6547  160.4111 O.2     1  UNL1       -0.2652
      8 N         141.1779  143.4303  159.1151 N.ar    1  UNL1       -0.2417
      9 C         142.1162  143.7853  157.9999 C.ar    1  UNL1        0.3342
     10 O         142.5628  145.2058  157.8190 O.2     1  UNL1       -0.2462
     11 N         142.6079  142.7198  157.0656 N.ar    1  UNL1       -0.2770
     12 C         143.5461  143.0749  155.9504 C.3     1  UNL1        0.1351
     13 N         141.7583  137.4778  156.6996 N.pl3   1  UNL1       -0.2925
     14 C         142.8409  136.6339  157.3046 C.3     1  UNL1        0.0936
     15 C         143.1309  135.1800  157.0766 C.3     1  UNL1        0.0385
     16 C         142.4099  134.2108  156.1872 C.3     1  UNL1        0.0704
     17 N         141.2210  134.4562  155.3062 N.3     1  UNL1       -0.2960
     18 C         140.4593  135.7314  155.0970 C.3     1  UNL1        0.0903
     19 C         140.6984  137.0762  155.7171 C.3     1  UNL1        0.1092
     20 H         140.5201  133.7904  155.6316 H       1  UNL1        0.1233
     21 C         143.3764  139.9381  155.2931 C.1     1  UNL1        0.1047
     22 N         144.2770  139.8323  154.0981 N.1     1  UNL1       -0.1907
     23 C         140.0736  138.6884  159.2186 C.3     1  UNL1        0.1332
     24 C         140.1812  137.5793  163.0276 C.3     1  UNL1        0.0261
     25 C         139.6569  138.0380  161.6992 C.2     1  UNL1       -0.0460
     26 C         138.1914  138.3051  161.5231 C.3     1  UNL1        0.0261
     27 C         140.5979  138.2296  160.5470 C.2     1  UNL1       -0.0102
     28 C         140.6862  144.4958  160.0494 C.3     1  UNL1        0.1593
     29 C         141.1920  144.5476  161.4606 C.ar    1  UNL1        0.0821
     30 N         142.6632  144.6708  161.7260 N.ar    1  UNL1       -0.2462
     31 C         143.1689  144.7226  163.1372 C.ar    1  UNL1        0.0985
     32 C         142.2036  144.6512  164.2830 C.ar    1  UNL1        0.0207
     33 C         140.7323  144.5279  164.0176 C.ar    1  UNL1        0.0027
     34 C         139.7669  144.4564  165.1634 C.ar    1  UNL1        0.0001
     35 C         138.2958  144.3332  164.8980 C.ar    1  UNL1        0.0000
     36 C         137.7900  144.2814  163.4868 C.ar    1  UNL1        0.0000
     37 C         138.7554  144.3529  162.3410 C.ar    1  UNL1        0.0012
     38 C         140.2265  144.4761  162.6064 C.ar    1  UNL1        0.0155
@<TRIPOS>BOND
     1    24    25    1
     2    25    26    1
     3    25    27    2
     4    27    23    1
     5    23     1    1
     6     1     2   ar
     7     2    13    1
     8    13    14    1
     9    14    15    1
    10    15    16    1
    11    16    17    1
    12    17    18    1
    13    18    19    1
    14     2     3   ar
    15     3    21    1
    16    21    22    3
    17     3     4   ar
    18     4     5   ar
    19     5     6   ar
    20     6     7    2
    21     6     8   ar
    22     8    28    1
    23    28    29    1
    24    29    30   ar
    25    30    31   ar
    26    31    32   ar
    27    32    33   ar
    28    33    34   ar
    29    34    35   ar
    30    35    36   ar
    31    36    37   ar
    32    37    38   ar
    33     8     9   ar
    34     9    10    2
    35     9    11   ar
    36    11    12    1
    37     5     1   ar
    38    38    29   ar
    39    19    13    1
    40    11     4   ar
    41    38    33   ar
    42    17    20    1
@<TRIPOS>MOLECULE
*****
 38 42 0 0 0
SMALL
GASTEIGER

@<TRIPOS>ATOM
      1 N         140.1692  142.0186  164.8291 N.ar    1  UNL1       -0.3063
      2 C         141.3150  142.3018  165.7549 C.ar    1  UNL1        0.1240
      3 C         142.4155  142.9295  164.9519 C.ar    1  UNL1        0.1156
      4 C         141.9499  143.0343  163.5299 C.ar    1  UNL1        0.0966
      5 C         140.5617  142.4713  163.4540 C.ar    1  UNL1        0.1349
      6 C         139.8342  142.4436  162.1425 C.ar    1  UNL1        0.2819
      7 O         138.4459  141.8807  162.0666 O.2     1  UNL1       -0.2652
      8 N         140.4950  142.9789  160.9069 N.ar    1  UNL1       -0.2417
      9 C         141.8833  143.5419  160.9828 C.ar    1  UNL1        0.3342
     10 O         142.5442  144.0772  159.7472 O.2     1  UNL1       -0.2462
     11 N         142.6108  143.5696  162.2943 N.ar    1  UNL1       -0.2770
     12 C         143.9990  144.1326  162.3701 C.3     1  UNL1        0.1351
     13 N         141.3534  142.0087  167.2256 N.pl3   1  UNL1       -0.2925
     14 C         140.5480  142.9292  168.0939 C.3     1  UNL1        0.0936
     15 C         140.3823  142.9022  169.5844 C.3     1  UNL1        0.0385
     16 C         140.9813  141.9481  170.5749 C.3     1  UNL1        0.0704
     17 N         141.8938  140.7853  170.3193 N.3     1  UNL1       -0.2960
     18 C         142.4327  140.2895  169.0102 C.3     1  UNL1        0.0903
     19 C         142.1922  140.8339  167.6333 C.3     1  UNL1        0.1092
     20 H         141.4021  139.9833  170.7135 H       1  UNL1        0.1233
     21 C         143.7477  143.3744  165.4785 C.1     1  UNL1        0.1047
     22 N         145.0800  143.8192  166.0051 N.1     1  UNL1       -0.1907
     23 C         138.8608  141.3926  165.2114 C.3     1  UNL1        0.1332
     24 C         138.3244  137.5158  165.8694 C.3     1  UNL1        0.0261
     25 C         138.5578  138.9767  166.1176 C.2     1  UNL1       -0.0460
     26 C         138.7217  139.4822  167.5203 C.3     1  UNL1        0.0261
     27 C         138.6274  139.9318  164.9632 C.2     1  UNL1       -0.0102
     28 C         139.7676  142.9513  159.5954 C.3     1  UNL1        0.1593
     29 C         139.7526  141.6973  158.7723 C.ar    1  UNL1        0.0821
     30 N         140.6902  140.5735  159.1006 N.ar    1  UNL1       -0.2462
     31 C         140.6752  139.3196  158.2776 C.ar    1  UNL1        0.0985
     32 C         139.7227  139.1895  157.1262 C.ar    1  UNL1        0.0207
     33 C         138.7850  140.3134  156.7979 C.ar    1  UNL1        0.0027
     34 C         137.8324  140.1833  155.6465 C.ar    1  UNL1        0.0001
     35 C         136.8948  141.3071  155.3182 C.ar    1  UNL1        0.0000
     36 C         136.9098  142.5611  156.1413 C.ar    1  UNL1        0.0000
     37 C         137.8624  142.6911  157.2926 C.ar    1  UNL1        0.0012
     38 C         138.8000  141.5673  157.6209 C.ar    1  UNL1        0.0155
@<TRIPOS>BOND
     1    24    25    1
     2    25    26    1
     3    25    27    2
     4    27    23    1
     5    23     1    1
     6     1     2   ar
     7     2    13    1
     8    13    14    1
     9    14    15    1
    10    15    16    1
    11    16    17    1
    12    17    18    1
    13    18    19    1
    14     2     3   ar
    15     3    21    1
    16    21    22    3
    17     3     4   ar
    18     4     5   ar
    19     5     6   ar
    20     6     7    2
    21     6     8   ar
    22     8    28    1
    23    28    29    1
    24    29    30   ar
    25    30    31   ar
    26    31    32   ar
    27    32    33   ar
    28    33    34   ar
    29    34    35   ar
    30    35    36   ar
    31    36    37   ar
    32    37    38   ar
    33     8     9   ar
    34     9    10    2
    35     9    11   ar
    36    11    12    1
    37     5     1   ar
    38    38    29   ar
    39    19    13    1
    40    11     4   ar
    41    38    33   ar
    42    17    20    1
@<TRIPOS>MOLECULE
*****
 38 42 0 0 0
SMALL
GASTEIGER

@<TRIPOS>ATOM
      1 N         141.7830  140.8396  162.7925 N.ar    1  UNL1       -0.3063
      2 C         140.6145  141.3543  163.5799 C.ar    1  UNL1        0.1240
      3 C         140.1845  142.6570  162.9732 C.ar    1  UNL1        0.1156
      4 C         141.0871  142.9474  161.8109 C.ar    1  UNL1        0.0966
      5 C         142.0749  141.8242  161.6992 C.ar    1  UNL1        0.1349
      6 C         143.1129  141.8430  160.6164 C.ar    1  UNL1        0.2819
      7 O         144.1007  140.7199  160.5048 O.2     1  UNL1       -0.2652
      8 N         143.1628  142.9851  159.6453 N.ar    1  UNL1       -0.2417
      9 C         142.1749  144.1083  159.7569 C.ar    1  UNL1        0.3342
     10 O         142.2248  145.2504  158.7857 O.2     1  UNL1       -0.2462
     11 N         141.1370  144.0894  160.8397 N.ar    1  UNL1       -0.2770
     12 C         140.1491  145.2126  160.9513 C.3     1  UNL1        0.1351
     13 N         139.9865  140.6840  164.7658 N.pl3   1  UNL1       -0.2925
     14 C         138.9106  139.6860  164.4551 C.3     1  UNL1        0.0936
     15 C         138.0999  138.8578  165.4073 C.3     1  UNL1        0.0385
     16 C         138.1648  138.8231  166.9055 C.3     1  UNL1        0.0704
     17 N         139.0564  139.6080  167.8215 N.3     1  UNL1       -0.2960
     18 C         140.1034  140.6214  167.4654 C.3     1  UNL1        0.0903
     19 C         140.5173  141.1003  166.1055 C.3     1  UNL1        0.1092
     20 H         139.5579  138.9003  168.3582 H       1  UNL1        0.1233
     21 C         139.0508  143.5181  163.4458 C.1     1  UNL1        0.1047
     22 N         137.9172  144.3792  163.9185 N.1     1  UNL1       -0.1907
     23 C         142.5284  139.5643  163.0528 C.3     1  UNL1        0.1332
     24 C         143.7244  138.2250  166.5920 C.3     1  UNL1        0.0261
     25 C         142.9253  138.3829  165.3324 C.2     1  UNL1       -0.0460
     26 C         141.7238  137.5173  165.0931 C.3     1  UNL1        0.0261
     27 C         143.3276  139.4063  164.3123 C.2     1  UNL1       -0.0102
     28 C         144.2007  143.0040  158.5625 C.3     1  UNL1        0.1593
     29 C         143.9654  142.2541  157.2849 C.ar    1  UNL1        0.0821
     30 N         142.5916  141.7526  156.9517 N.ar    1  UNL1       -0.2462
     31 C         142.3563  141.0027  155.6741 C.ar    1  UNL1        0.0985
     32 C         143.4948  140.7543  154.7297 C.ar    1  UNL1        0.0207
     33 C         144.8687  141.2558  155.0628 C.ar    1  UNL1        0.0027
     34 C         146.0072  141.0074  154.1184 C.ar    1  UNL1        0.0001
     35 C         147.3811  141.5090  154.4515 C.ar    1  UNL1        0.0000
     36 C         147.6163  142.2589  155.7291 C.ar    1  UNL1        0.0000
     37 C         146.4778  142.5073  156.6736 C.ar    1  UNL1        0.0012
     38 C         145.1040  142.0057  156.3404 C.ar    1  UNL1        0.0155
@<TRIPOS>BOND
     1    24    25    1
     2    25    26    1
     3    25    27    2
     4    27    23    1
     5    23     1    1
     6     1     2   ar
     7     2    13    1
     8    13    14    1
     9    14    15    1
    10    15    16    1
    11    16    17    1
    12    17    18    1
    13    18    19    1
    14     2     3   ar
    15     3    21    1
    16    21    22    3
    17     3     4   ar
    18     4     5   ar
    19     5     6   ar
    20     6     7    2
    21     6     8   ar
    22     8    28    1
    23    28    29    1
    24    29    30   ar
    25    30    31   ar
    26    31    32   ar
    27    32    33   ar
    28    33    34   ar
    29    34    35   ar
    30    35    36   ar
    31    36    37   ar
    32    37    38   ar
    33     8     9   ar
    34     9    10    2
    35     9    11   ar
    36    11    12    1
    37     5     1   ar
    38    38    29   ar
    39    19    13    1
    40    11     4   ar
    41    38    33   ar
    42    17    20    1
