@<TRIPOS>MOLECULE
*****
 25 28 0 0 0
SMALL
GASTEIGER

@<TRIPOS>ATOM
      1 C         139.8562  138.6366  164.7504 C.ar    1  UNL1        0.0536
      2 C         138.5298  138.4016  165.4103 C.ar    1  UNL1        0.0042
      3 C         138.2799  138.9179  166.7963 C.ar    1  UNL1       -0.0028
      4 C         139.3562  139.6692  167.5223 C.ar    1  UNL1       -0.0061
      5 C         140.6826  139.9041  166.8624 C.ar    1  UNL1       -0.0028
      6 C         140.9325  139.3878  165.4764 C.ar    1  UNL1        0.0042
      7 O         140.8402  136.8271  163.1669 O.2     1  UNL1       -0.2699
      8 C         140.1063  138.1203  163.3644 C.2     1  UNL1        0.2491
      9 N         139.6224  138.8971  162.1760 N.am    1  UNL1       -0.2732
     10 C         138.8885  140.1903  162.3735 C.3     1  UNL1        0.1110
     11 C         138.4046  140.9672  161.1851 C.3     1  UNL1        0.0939
     12 N         138.6547  140.4509  159.7991 N.3     1  UNL1       -0.2711
     13 C         139.3886  139.1577  159.6016 C.3     1  UNL1        0.0939
     14 C         139.8725  138.3808  160.7900 C.3     1  UNL1        0.1110
     15 C         138.1708  141.2277  158.6107 C.3     1  UNL1        0.0576
     16 C         138.2657  142.6578  158.1681 C.3     1  UNL1        0.0160
     17 C         137.4866  142.3264  156.9301 C.3     1  UNL1        0.0028
     18 C         137.3916  140.8963  157.3726 C.3     1  UNL1        0.0160
     19 C         139.1061  140.1855  168.9083 C.3     1  UNL1        0.0993
     20 N         140.1120  141.0820  169.5675 N.3     1  UNL1       -0.2646
     21 C         141.0815  140.5171  170.5630 C.3     1  UNL1        0.1049
     22 C         142.0873  141.4136  171.2223 C.3     1  UNL1        0.1595
     23 O         142.1237  142.8749  170.8860 O.3     1  UNL1       -0.3508
     24 C         141.1542  143.4398  169.8905 C.3     1  UNL1        0.1595
     25 C         140.1484  142.5434  169.2313 C.3     1  UNL1        0.1049
@<TRIPOS>BOND
     1     7     8    2
     2     8     1    1
     3     1     2   ar
     4     2     3   ar
     5     3     4   ar
     6     4    19    1
     7    19    20    1
     8    20    21    1
     9    21    22    1
    10    22    23    1
    11    23    24    1
    12    24    25    1
    13     4     5   ar
    14     5     6   ar
    15     8     9   am
    16     9    10    1
    17    10    11    1
    18    11    12    1
    19    12    15    1
    20    15    16    1
    21    16    17    1
    22    17    18    1
    23    12    13    1
    24    13    14    1
    25     6     1   ar
    26    14     9    1
    27    25    20    1
    28    18    15    1
@<TRIPOS>MOLECULE
*****
 25 28 0 0 0
SMALL
GASTEIGER

@<TRIPOS>ATOM
      1 C         138.6584  138.9290  164.6670 C.ar    1  UNL1        0.0536
      2 C         139.3921  137.7470  164.1062 C.ar    1  UNL1        0.0042
      3 C         139.6030  137.6286  162.6258 C.ar    1  UNL1       -0.0028
      4 C         139.0801  138.6921  161.7063 C.ar    1  UNL1       -0.0061
      5 C         138.3464  139.8741  162.2671 C.ar    1  UNL1       -0.0028
      6 C         138.1355  139.9925  163.7475 C.ar    1  UNL1        0.0042
      7 O         137.2778  138.3675  166.7951 O.2     1  UNL1       -0.2699
      8 C         138.4475  139.0474  166.1474 C.2     1  UNL1        0.2491
      9 N         139.4063  139.8458  166.9801 N.am    1  UNL1       -0.2732
     10 C         140.5760  140.5257  166.3324 C.3     1  UNL1        0.1110
     11 C         141.5348  141.3240  167.1651 C.3     1  UNL1        0.0939
     12 N         141.3239  141.4424  168.6454 N.3     1  UNL1       -0.2711
     13 C         140.1542  140.7625  169.2931 C.3     1  UNL1        0.0939
     14 C         139.1954  139.9642  168.4605 C.3     1  UNL1        0.1110
     15 C         142.2827  142.2408  169.4781 C.3     1  UNL1        0.0576
     16 C         142.1496  143.3524  170.4764 C.3     1  UNL1        0.0160
     17 C         143.6386  143.3698  170.6557 C.3     1  UNL1        0.0028
     18 C         143.7718  142.2582  169.6573 C.3     1  UNL1        0.0160
     19 C         139.2910  138.5737  160.2259 C.3     1  UNL1        0.0993
     20 N         140.6749  138.6697  159.6554 N.3     1  UNL1       -0.2646
     21 C         140.9560  138.1480  158.2774 C.3     1  UNL1        0.1049
     22 C         142.3400  138.2441  157.7070 C.3     1  UNL1        0.1595
     23 O         143.4429  138.8617  158.5145 O.3     1  UNL1       -0.3508
     24 C         143.1618  139.3834  159.8925 C.3     1  UNL1        0.1595
     25 C         141.7779  139.2874  160.4629 C.3     1  UNL1        0.1049
@<TRIPOS>BOND
     1     7     8    2
     2     8     1    1
     3     1     2   ar
     4     2     3   ar
     5     3     4   ar
     6     4    19    1
     7    19    20    1
     8    20    21    1
     9    21    22    1
    10    22    23    1
    11    23    24    1
    12    24    25    1
    13     4     5   ar
    14     5     6   ar
    15     8     9   am
    16     9    10    1
    17    10    11    1
    18    11    12    1
    19    12    15    1
    20    15    16    1
    21    16    17    1
    22    17    18    1
    23    12    13    1
    24    13    14    1
    25     6     1   ar
    26    14     9    1
    27    25    20    1
    28    18    15    1
@<TRIPOS>MOLECULE
*****
 25 28 0 0 0
SMALL
GASTEIGER

@<TRIPOS>ATOM
      1 C         138.5702  140.6360  164.4715 C.ar    1  UNL1        0.0536
      2 C         139.5489  141.6565  164.9720 C.ar    1  UNL1        0.0042
      3 C         140.1414  141.5182  166.3430 C.ar    1  UNL1       -0.0028
      4 C         139.7552  140.3594  167.2136 C.ar    1  UNL1       -0.0061
      5 C         138.7765  139.3388  166.7131 C.ar    1  UNL1       -0.0028
      6 C         138.1840  139.4771  165.3421 C.ar    1  UNL1        0.0042
      7 O         136.7030  141.5413  162.9081 O.2     1  UNL1       -0.2699
      8 C         137.9776  140.7742  163.1004 C.2     1  UNL1        0.2491
      9 N         138.6597  140.1455  161.9217 N.am    1  UNL1       -0.2732
     10 C         139.9343  139.3784  162.1140 C.3     1  UNL1        0.1110
     11 C         140.6164  138.7497  160.9352 C.3     1  UNL1        0.0939
     12 N         140.0238  138.8880  159.5642 N.3     1  UNL1       -0.2711
     13 C         138.7492  139.6550  159.3719 C.3     1  UNL1        0.0939
     14 C         138.0671  140.2838  160.5506 C.3     1  UNL1        0.1110
     15 C         140.7058  138.2592  158.3855 C.3     1  UNL1        0.0576
     16 C         140.2591  137.7605  157.0432 C.3     1  UNL1        0.0160
     17 C         141.6704  137.3700  156.7185 C.3     1  UNL1        0.0028
     18 C         142.1172  137.8687  158.0607 C.3     1  UNL1        0.0160
     19 C         140.3477  140.2211  168.5847 C.3     1  UNL1        0.0993
     20 N         141.0889  141.3704  169.2008 N.3     1  UNL1       -0.2646
     21 C         140.3457  142.6044  169.6189 C.3     1  UNL1        0.1049
     22 C         141.0869  143.7538  170.2351 C.3     1  UNL1        0.1595
     23 O         142.5713  143.6691  170.4331 O.3     1  UNL1       -0.3508
     24 C         143.3146  142.4351  170.0149 C.3     1  UNL1        0.1595
     25 C         142.5734  141.2858  169.3988 C.3     1  UNL1        0.1049
@<TRIPOS>BOND
     1     7     8    2
     2     8     1    1
     3     1     2   ar
     4     2     3   ar
     5     3     4   ar
     6     4    19    1
     7    19    20    1
     8    20    21    1
     9    21    22    1
    10    22    23    1
    11    23    24    1
    12    24    25    1
    13     4     5   ar
    14     5     6   ar
    15     8     9   am
    16     9    10    1
    17    10    11    1
    18    11    12    1
    19    12    15    1
    20    15    16    1
    21    16    17    1
    22    17    18    1
    23    12    13    1
    24    13    14    1
    25     6     1   ar
    26    14     9    1
    27    25    20    1
    28    18    15    1
@<TRIPOS>MOLECULE
*****
 25 28 0 0 0
SMALL
GASTEIGER

@<TRIPOS>ATOM
      1 C         142.0002  138.8333  164.2242 C.ar    1  UNL1        0.0536
      2 C         143.0544  138.2646  165.1270 C.ar    1  UNL1        0.0042
      3 C         143.2350  138.8167  166.5100 C.ar    1  UNL1       -0.0028
      4 C         142.3613  139.9375  166.9901 C.ar    1  UNL1       -0.0061
      5 C         141.3071  140.5062  166.0873 C.ar    1  UNL1       -0.0028
      6 C         141.1265  139.9541  164.7044 C.ar    1  UNL1        0.0042
      7 O         140.9880  137.0512  162.6274 O.2     1  UNL1       -0.2699
      8 C         141.8195  138.2812  162.8412 C.2     1  UNL1        0.2491
      9 N         142.4704  138.9590  161.6721 N.am    1  UNL1       -0.2732
     10 C         143.3019  140.1890  161.8860 C.3     1  UNL1        0.1110
     11 C         143.9528  140.8669  160.7168 C.3     1  UNL1        0.0939
     12 N         143.7721  140.3148  159.3339 N.3     1  UNL1       -0.2711
     13 C         142.9406  139.0848  159.1200 C.3     1  UNL1        0.0939
     14 C         142.2897  138.4069  160.2891 C.3     1  UNL1        0.1110
     15 C         144.4230  140.9926  158.1648 C.3     1  UNL1        0.0576
     16 C         144.9595  142.3682  157.9001 C.3     1  UNL1        0.0160
     17 C         145.3435  141.9513  156.5114 C.3     1  UNL1        0.0028
     18 C         144.8070  140.5757  156.7760 C.3     1  UNL1        0.0160
     19 C         142.5420  140.4896  168.3731 C.3     1  UNL1        0.0993
     20 N         141.3557  140.9937  169.1402 N.3     1  UNL1       -0.2646
     21 C         141.3227  142.4137  169.6226 C.3     1  UNL1        0.1049
     22 C         140.1364  142.9178  170.3898 C.3     1  UNL1        0.1595
     23 O         138.9831  142.0020  170.6746 O.3     1  UNL1       -0.3508
     24 C         139.0161  140.5820  170.1923 C.3     1  UNL1        0.1595
     25 C         140.2024  140.0779  169.4251 C.3     1  UNL1        0.1049
@<TRIPOS>BOND
     1     7     8    2
     2     8     1    1
     3     1     2   ar
     4     2     3   ar
     5     3     4   ar
     6     4    19    1
     7    19    20    1
     8    20    21    1
     9    21    22    1
    10    22    23    1
    11    23    24    1
    12    24    25    1
    13     4     5   ar
    14     5     6   ar
    15     8     9   am
    16     9    10    1
    17    10    11    1
    18    11    12    1
    19    12    15    1
    20    15    16    1
    21    16    17    1
    22    17    18    1
    23    12    13    1
    24    13    14    1
    25     6     1   ar
    26    14     9    1
    27    25    20    1
    28    18    15    1
@<TRIPOS>MOLECULE
*****
 25 28 0 0 0
SMALL
GASTEIGER

@<TRIPOS>ATOM
      1 C         143.7044  140.2697  164.0292 C.ar    1  UNL1        0.0536
      2 C         142.8310  141.3081  164.6684 C.ar    1  UNL1        0.0042
      3 C         142.3266  141.1065  166.0666 C.ar    1  UNL1       -0.0028
      4 C         142.6957  139.8664  166.8255 C.ar    1  UNL1       -0.0061
      5 C         143.5691  138.8279  166.1862 C.ar    1  UNL1       -0.0028
      6 C         144.0735  139.0296  164.7881 C.ar    1  UNL1        0.0042
      7 O         145.4600  141.2635  162.3919 O.2     1  UNL1       -0.2699
      8 C         144.2089  140.4713  162.6309 C.2     1  UNL1        0.2491
      9 N         143.4622  139.8807  161.4718 N.am    1  UNL1       -0.2732
     10 C         142.2111  139.0885  161.7108 C.3     1  UNL1        0.1110
     11 C         141.4644  138.4979  160.5515 C.3     1  UNL1        0.0939
     12 N         141.9689  138.6995  159.1534 N.3     1  UNL1       -0.2711
     13 C         143.2200  139.4918  158.9144 C.3     1  UNL1        0.0939
     14 C         143.9666  140.0823  160.0736 C.3     1  UNL1        0.1110
     15 C         141.2222  138.1089  157.9943 C.3     1  UNL1        0.0576
     16 C         141.5858  137.2265  156.8370 C.3     1  UNL1        0.0160
     17 C         140.1663  137.2737  156.3549 C.3     1  UNL1        0.0028
     18 C         139.8026  138.1561  157.5121 C.3     1  UNL1        0.0160
     19 C         142.1912  139.6647  168.2237 C.3     1  UNL1        0.0993
     20 N         141.8725  140.8511  169.0844 N.3     1  UNL1       -0.2646
     21 C         142.9810  141.7036  169.6269 C.3     1  UNL1        0.1049
     22 C         142.6622  142.8901  170.4876 C.3     1  UNL1        0.1595
     23 O         141.2349  143.2239  170.8058 O.3     1  UNL1       -0.3508
     24 C         140.1264  142.3714  170.2633 C.3     1  UNL1        0.1595
     25 C         140.4451  141.1851  169.4026 C.3     1  UNL1        0.1049
@<TRIPOS>BOND
     1     7     8    2
     2     8     1    1
     3     1     2   ar
     4     2     3   ar
     5     3     4   ar
     6     4    19    1
     7    19    20    1
     8    20    21    1
     9    21    22    1
    10    22    23    1
    11    23    24    1
    12    24    25    1
    13     4     5   ar
    14     5     6   ar
    15     8     9   am
    16     9    10    1
    17    10    11    1
    18    11    12    1
    19    12    15    1
    20    15    16    1
    21    16    17    1
    22    17    18    1
    23    12    13    1
    24    13    14    1
    25     6     1   ar
    26    14     9    1
    27    25    20    1
    28    18    15    1
@<TRIPOS>MOLECULE
*****
 25 28 0 0 0
SMALL
GASTEIGER

@<TRIPOS>ATOM
      1 C         143.6421  138.8720  164.7319 C.ar    1  UNL1        0.0536
      2 C         144.7258  139.7331  164.1539 C.ar    1  UNL1        0.0042
      3 C         144.7872  139.9687  162.6738 C.ar    1  UNL1       -0.0028
      4 C         143.7650  139.3432  161.7717 C.ar    1  UNL1       -0.0061
      5 C         142.6813  138.4821  162.3497 C.ar    1  UNL1       -0.0028
      6 C         142.6199  138.2465  163.8298 C.ar    1  UNL1        0.0042
      7 O         144.2916  137.4611  166.8145 O.2     1  UNL1       -0.2699
      8 C         143.5806  138.6364  166.2120 C.2     1  UNL1        0.2491
      9 N         142.8081  139.5761  167.0896 N.am    1  UNL1       -0.2732
     10 C         142.0971  140.7515  166.4871 C.3     1  UNL1        0.1110
     11 C         141.3246  141.6912  167.3648 C.3     1  UNL1        0.0939
     12 N         141.2632  141.4556  168.8449 N.3     1  UNL1       -0.2711
     13 C         141.9742  140.2802  169.4473 C.3     1  UNL1        0.0939
     14 C         142.7467  139.3405  168.5698 C.3     1  UNL1        0.1110
     15 C         140.4907  142.3953  169.7224 C.3     1  UNL1        0.0576
     16 C         140.4278  143.8852  169.8847 C.3     1  UNL1        0.0160
     17 C         139.3983  143.7243  170.9635 C.3     1  UNL1        0.0028
     18 C         139.4611  142.2344  170.8013 C.3     1  UNL1        0.0160
     19 C         143.8265  139.5788  160.2916 C.3     1  UNL1        0.0993
     20 N         143.6564  140.9653  159.7451 N.3     1  UNL1       -0.2646
     21 C         144.2814  141.3362  158.4329 C.3     1  UNL1        0.1049
     22 C         144.1113  142.7228  157.8865 C.3     1  UNL1        0.1595
     23 O         143.3164  143.7385  158.6523 O.3     1  UNL1       -0.3508
     24 C         142.6915  143.3676  159.9645 C.3     1  UNL1        0.1595
     25 C         142.8615  141.9811  160.5110 C.3     1  UNL1        0.1049
@<TRIPOS>BOND
     1     7     8    2
     2     8     1    1
     3     1     2   ar
     4     2     3   ar
     5     3     4   ar
     6     4    19    1
     7    19    20    1
     8    20    21    1
     9    21    22    1
    10    22    23    1
    11    23    24    1
    12    24    25    1
    13     4     5   ar
    14     5     6   ar
    15     8     9   am
    16     9    10    1
    17    10    11    1
    18    11    12    1
    19    12    15    1
    20    15    16    1
    21    16    17    1
    22    17    18    1
    23    12    13    1
    24    13    14    1
    25     6     1   ar
    26    14     9    1
    27    25    20    1
    28    18    15    1
@<TRIPOS>MOLECULE
*****
 25 28 0 0 0
SMALL
GASTEIGER

@<TRIPOS>ATOM
      1 C         140.1898  139.2779  164.0970 C.ar    1  UNL1        0.0536
      2 C         138.7712  139.4246  164.5617 C.ar    1  UNL1        0.0042
      3 C         138.4783  139.6608  166.0137 C.ar    1  UNL1       -0.0028
      4 C         139.6040  139.7503  167.0010 C.ar    1  UNL1       -0.0061
      5 C         141.0226  139.6036  166.5363 C.ar    1  UNL1       -0.0028
      6 C         141.3155  139.3674  165.0843 C.ar    1  UNL1        0.0042
      7 O         140.4912  137.6445  162.0991 O.2     1  UNL1       -0.2699
      8 C         140.4828  139.0417  162.6449 C.2     1  UNL1        0.2491
      9 N         140.7674  140.2026  161.7387 N.am    1  UNL1       -0.2732
     10 C         140.7590  141.5997  162.2845 C.3     1  UNL1        0.1110
     11 C         141.0436  142.7607  161.3782 C.3     1  UNL1        0.0939
     12 N         141.3366  142.5244  159.9262 N.3     1  UNL1       -0.2711
     13 C         141.3450  141.1273  159.3804 C.3     1  UNL1        0.0939
     14 C         141.0604  139.9664  160.2866 C.3     1  UNL1        0.1110
     15 C         141.6212  143.6853  159.0200 C.3     1  UNL1        0.0576
     16 C         142.7363  144.0542  158.0870 C.3     1  UNL1        0.0160
     17 C         142.0237  145.3272  157.7384 C.3     1  UNL1        0.0028
     18 C         140.9085  144.9584  158.6714 C.3     1  UNL1        0.0160
     19 C         139.3110  139.9865  168.4531 C.3     1  UNL1        0.0993
     20 N         140.1887  140.8999  169.2563 N.3     1  UNL1       -0.2646
     21 C         140.2213  142.3682  168.9515 C.3     1  UNL1        0.1049
     22 C         141.0991  143.2816  169.7549 C.3     1  UNL1        0.1595
     23 O         141.9441  142.7267  170.8630 O.3     1  UNL1       -0.3508
     24 C         141.9115  141.2584  171.1678 C.3     1  UNL1        0.1595
     25 C         141.0338  140.3450  170.3645 C.3     1  UNL1        0.1049
@<TRIPOS>BOND
     1     7     8    2
     2     8     1    1
     3     1     2   ar
     4     2     3   ar
     5     3     4   ar
     6     4    19    1
     7    19    20    1
     8    20    21    1
     9    21    22    1
    10    22    23    1
    11    23    24    1
    12    24    25    1
    13     4     5   ar
    14     5     6   ar
    15     8     9   am
    16     9    10    1
    17    10    11    1
    18    11    12    1
    19    12    15    1
    20    15    16    1
    21    16    17    1
    22    17    18    1
    23    12    13    1
    24    13    14    1
    25     6     1   ar
    26    14     9    1
    27    25    20    1
    28    18    15    1
@<TRIPOS>MOLECULE
*****
 25 28 0 0 0
SMALL
GASTEIGER

@<TRIPOS>ATOM
      1 C         140.2327  138.7149  157.8792 C.ar    1  UNL1        0.0536
      2 C         141.7156  138.6609  158.0982 C.ar    1  UNL1        0.0042
      3 C         142.5534  137.6884  157.3222 C.ar    1  UNL1       -0.0028
      4 C         141.9083  136.7700  156.3271 C.ar    1  UNL1       -0.0061
      5 C         140.4254  136.8239  156.1080 C.ar    1  UNL1       -0.0028
      6 C         139.5876  137.7964  156.8841 C.ar    1  UNL1        0.0042
      7 O         138.7771  140.8654  157.9618 O.2     1  UNL1       -0.2699
      8 C         139.3948  139.6874  158.6553 C.2     1  UNL1        0.2491
      9 N         139.1746  139.4819  160.1247 N.am    1  UNL1       -0.2732
     10 C         139.7923  138.3040  160.8181 C.3     1  UNL1        0.1110
     11 C         139.5721  138.0985  162.2876 C.3     1  UNL1        0.0939
     12 N         138.7343  139.0710  163.0636 N.3     1  UNL1       -0.2711
     13 C         138.1165  140.2489  162.3702 C.3     1  UNL1        0.0939
     14 C         138.3367  140.4544  160.9008 C.3     1  UNL1        0.1110
     15 C         138.5141  138.8655  164.5331 C.3     1  UNL1        0.0576
     16 C         138.1434  139.7527  165.6844 C.3     1  UNL1        0.0160
     17 C         138.2027  138.5749  166.6112 C.3     1  UNL1        0.0028
     18 C         138.5734  137.6876  165.4600 C.3     1  UNL1        0.0160
     19 C         142.7462  135.7974  155.5510 C.3     1  UNL1        0.0993
     20 N         142.6643  134.3302  155.8515 N.3     1  UNL1       -0.2646
     21 C         141.7253  133.4565  155.0737 C.3     1  UNL1        0.1049
     22 C         141.6434  131.9892  155.3743 C.3     1  UNL1        0.1595
     23 O         142.5005  131.3956  156.4527 O.3     1  UNL1       -0.3508
     24 C         143.4395  132.2693  157.2306 C.3     1  UNL1        0.1595
     25 C         143.5214  133.7365  156.9300 C.3     1  UNL1        0.1049
@<TRIPOS>BOND
     1     7     8    2
     2     8     1    1
     3     1     2   ar
     4     2     3   ar
     5     3     4   ar
     6     4    19    1
     7    19    20    1
     8    20    21    1
     9    21    22    1
    10    22    23    1
    11    23    24    1
    12    24    25    1
    13     4     5   ar
    14     5     6   ar
    15     8     9   am
    16     9    10    1
    17    10    11    1
    18    11    12    1
    19    12    15    1
    20    15    16    1
    21    16    17    1
    22    17    18    1
    23    12    13    1
    24    13    14    1
    25     6     1   ar
    26    14     9    1
    27    25    20    1
    28    18    15    1
@<TRIPOS>MOLECULE
*****
 25 28 0 0 0
SMALL
GASTEIGER

@<TRIPOS>ATOM
      1 C         138.4391  139.5660  162.8507 C.ar    1  UNL1        0.0536
      2 C         138.7754  138.2434  163.4732 C.ar    1  UNL1        0.0042
      3 C         138.7635  138.0922  164.9655 C.ar    1  UNL1       -0.0028
      4 C         138.4152  139.2637  165.8353 C.ar    1  UNL1       -0.0061
      5 C         138.0790  140.5863  165.2128 C.ar    1  UNL1       -0.0028
      6 C         138.0909  140.7374  163.7205 C.ar    1  UNL1        0.0042
      7 O         137.2057  139.4468  160.5672 O.2     1  UNL1       -0.2699
      8 C         138.4511  139.7173  161.3584 C.2     1  UNL1        0.2491
      9 N         139.7083  140.1389  160.6573 N.am    1  UNL1       -0.2732
     10 C         140.9536  140.4093  161.4485 C.3     1  UNL1        0.1110
     11 C         142.2109  140.8310  160.7473 C.3     1  UNL1        0.0939
     12 N         142.2228  140.9822  159.2550 N.3     1  UNL1       -0.2711
     13 C         140.9774  140.7118  158.4638 C.3     1  UNL1        0.0939
     14 C         139.7202  140.2901  159.1649 C.3     1  UNL1        0.1110
     15 C         143.4800  141.4038  158.5539 C.3     1  UNL1        0.0576
     16 C         144.2330  140.9263  157.3477 C.3     1  UNL1        0.0160
     17 C         145.2580  142.0001  157.5624 C.3     1  UNL1        0.0028
     18 C         144.5051  142.4777  158.7687 C.3     1  UNL1        0.0160
     19 C         138.4033  139.1124  167.3276 C.3     1  UNL1        0.0993
     20 N         139.4600  139.7791  168.1575 N.3     1  UNL1       -0.2646
     21 C         139.1285  140.2820  169.5313 C.3     1  UNL1        0.1049
     22 C         140.1854  140.9487  170.3612 C.3     1  UNL1        0.1595
     23 O         141.5736  141.1126  169.8173 O.3     1  UNL1       -0.3508
     24 C         141.9051  140.6098  168.4435 C.3     1  UNL1        0.1595
     25 C         140.8484  139.9431  167.6136 C.3     1  UNL1        0.1049
@<TRIPOS>BOND
     1     7     8    2
     2     8     1    1
     3     1     2   ar
     4     2     3   ar
     5     3     4   ar
     6     4    19    1
     7    19    20    1
     8    20    21    1
     9    21    22    1
    10    22    23    1
    11    23    24    1
    12    24    25    1
    13     4     5   ar
    14     5     6   ar
    15     8     9   am
    16     9    10    1
    17    10    11    1
    18    11    12    1
    19    12    15    1
    20    15    16    1
    21    16    17    1
    22    17    18    1
    23    12    13    1
    24    13    14    1
    25     6     1   ar
    26    14     9    1
    27    25    20    1
    28    18    15    1
