@<TRIPOS>MOLECULE
*****
 39 45 0 0 0
SMALL
GASTEIGER

@<TRIPOS>ATOM
      1 C         137.7735  139.6178  161.9550 C.3     1  UNL1        0.0700
      2 C         138.4668  138.3511  162.3609 C.3     1  UNL1        0.0193
      3 C         139.0395  138.2185  163.7409 C.3     1  UNL1        0.0287
      4 C         138.9189  139.3528  164.7151 C.3     1  UNL1        0.0955
      5 C         138.2256  140.6195  164.3093 C.3     1  UNL1        0.0287
      6 C         137.6529  140.7520  162.9292 C.3     1  UNL1        0.0193
      7 O         138.5893  139.4720  163.9701 O.3     1  UNL1       -0.3571
      8 C         138.0715  139.5918  162.7223 C.3     1  UNL1        0.1562
      9 N         137.2009  139.7503  160.5750 N.3     1  UNL1       -0.2926
     10 H         136.6477  138.9106  160.4038 H       1  UNL1        0.1236
     11 C         138.1143  139.9148  159.3966 C.3     1  UNL1        0.1152
     12 C         139.1719  146.3546  155.1350 C.3     1  UNL1        0.0513
     13 C         138.4154  145.0889  155.4107 C.3     1  UNL1        0.2095
     14 C         137.2550  144.7044  154.5416 C.3     1  UNL1        0.2487
     15 O         136.4985  143.4388  154.8172 O.3     1  UNL1       -0.4669
     16 C         136.9024  142.5578  155.9620 C.ar    1  UNL1        0.1914
     17 C         136.1460  141.2922  156.2377 C.ar    1  UNL1        0.1384
     18 N         136.5499  140.4112  157.3826 N.ar    1  UNL1       -0.2434
     19 C         137.7104  140.7958  158.2518 C.ar    1  UNL1        0.0782
     20 C         138.4668  142.0614  157.9761 C.ar    1  UNL1        0.0562
     21 C         138.0629  142.9424  156.8312 C.ar    1  UNL1        0.1750
     22 O         138.8194  144.2079  156.5556 O.3     1  UNL1       -0.4722
     23 C         139.4916  139.2203  166.0952 C.3     1  UNL1        0.0604
     24 C         140.6324  140.0961  166.5211 C.3     1  UNL1        0.1335
     25 O         141.1393  139.8428  165.1322 O.3     1  UNL1       -0.3806
     26 C         141.8792  140.9190  166.6567 C.3     1  UNL1        0.1402
     27 N         141.9044  141.4978  168.0403 N.ar    1  UNL1       -0.2915
     28 C         142.8894  142.3883  168.7379 C.ar    1  UNL1        0.2611
     29 O         144.1206  142.8535  168.0184 O.2     1  UNL1       -0.2670
     30 C         142.6432  142.8137  170.1551 C.ar    1  UNL1        0.0623
     31 C         141.4120  142.3485  170.8746 C.ar    1  UNL1        0.0254
     32 C         140.4270  141.4580  170.1770 C.ar    1  UNL1        0.0972
     33 N         139.1298  140.8488  170.6424 N.ar    1  UNL1       -0.2400
     34 C         138.2394  139.9655  169.8196 C.ar    1  UNL1        0.1282
     35 C         138.6180  139.6243  168.4089 C.ar    1  UNL1        0.1588
     36 F         137.7276  138.7411  167.5861 F       1  UNL1       -0.2027
     37 C         139.8871  140.1664  167.8209 C.ar    1  UNL1        0.0500
     38 C         140.6732  141.0327  168.7598 C.ar    1  UNL1        0.0806
     39 H         141.9804  140.3089  165.0050 H       1  UNL1        0.2108
@<TRIPOS>BOND
     1    12    13    1
     2    13    14    1
     3    14    15    1
     4    15    16    1
     5    16    17   ar
     6    17    18   ar
     7    18    19   ar
     8    19    11    1
     9    11     9    1
    10     9     1    1
    11     1     2    1
    12     2     3    1
    13     3     4    1
    14     4    23    1
    15    23    24    1
    16    24    25    1
    17    24    26    1
    18    26    27    1
    19    27    28   ar
    20    28    29    2
    21    28    30   ar
    22    30    31   ar
    23    31    32   ar
    24    32    33   ar
    25    33    34   ar
    26    34    35   ar
    27    35    36    1
    28    35    37   ar
    29    37    38   ar
    30     4     5    1
    31     5     6    1
    32     4     7    1
    33     7     8    1
    34    19    20   ar
    35    20    21   ar
    36    21    22    1
    37    22    13    1
    38    21    16   ar
    39     6     1    1
    40     8     1    1
    41    37    24    1
    42    38    27   ar
    43    38    32   ar
    44     9    10    1
    45    25    39    1
@<TRIPOS>MOLECULE
*****
 39 45 0 0 0
SMALL
GASTEIGER

@<TRIPOS>ATOM
      1 C         137.7977  139.5957  162.0316 C.3     1  UNL1        0.0700
      2 C         137.6473  140.6950  163.0410 C.3     1  UNL1        0.0193
      3 C         138.2438  140.5438  164.4090 C.3     1  UNL1        0.0287
      4 C         138.9906  139.2932  164.7676 C.3     1  UNL1        0.0955
      5 C         139.1409  138.1939  163.7582 C.3     1  UNL1        0.0287
      6 C         138.5444  138.3452  162.3902 C.3     1  UNL1        0.0193
      7 O         138.6812  139.3305  164.0055 O.3     1  UNL1       -0.3571
      8 C         138.1419  139.4672  162.7686 C.3     1  UNL1        0.1562
      9 N         137.2012  139.7469  160.6636 N.3     1  UNL1       -0.2926
     10 H         136.9429  138.8113  160.3500 H       1  UNL1        0.1236
     11 C         138.0049  140.3673  159.5595 C.3     1  UNL1        0.1152
     12 C         144.0795  144.2336  162.5430 C.3     1  UNL1        0.0513
     13 C         143.5368  143.1148  161.7040 C.3     1  UNL1        0.2095
     14 C         144.4763  142.1662  161.0206 C.3     1  UNL1        0.2487
     15 O         143.9337  141.0473  160.1815 O.3     1  UNL1       -0.4669
     16 C         142.4515  140.8773  160.0261 C.ar    1  UNL1        0.1914
     17 C         141.9089  139.7586  159.1871 C.ar    1  UNL1        0.1384
     18 N         140.4266  139.5886  159.0316 N.ar    1  UNL1       -0.2434
     19 C         139.4871  140.5374  159.7151 C.ar    1  UNL1        0.0782
     20 C         140.0298  141.6561  160.5540 C.ar    1  UNL1        0.0562
     21 C         141.5120  141.8261  160.7095 C.ar    1  UNL1        0.1750
     22 O         142.0546  142.9448  161.5485 O.3     1  UNL1       -0.4722
     23 C         139.5870  139.1421  166.1356 C.3     1  UNL1        0.0604
     24 C         140.7093  140.0386  166.5678 C.3     1  UNL1        0.1335
     25 O         141.2701  139.7280  165.2116 O.3     1  UNL1       -0.3806
     26 C         141.9488  140.8701  166.7164 C.3     1  UNL1        0.1402
     27 N         141.9196  141.5073  168.0741 N.ar    1  UNL1       -0.2915
     28 C         142.8756  142.4295  168.7708 C.ar    1  UNL1        0.2611
     29 O         144.1332  142.8673  168.0804 O.2     1  UNL1       -0.2670
     30 C         142.5740  142.9139  170.1580 C.ar    1  UNL1        0.0623
     31 C         141.3164  142.4761  170.8485 C.ar    1  UNL1        0.0254
     32 C         140.3603  141.5538  170.1517 C.ar    1  UNL1        0.0972
     33 N         139.0469  140.9611  170.5920 N.ar    1  UNL1       -0.2400
     34 C         138.1902  140.0411  169.7737 C.ar    1  UNL1        0.1282
     35 C         138.6238  139.6414  168.3945 C.ar    1  UNL1        0.1588
     36 F         137.7671  138.7214  167.5761 F       1  UNL1       -0.2027
     37 C         139.9140  140.1617  167.8336 C.ar    1  UNL1        0.0500
     38 C         140.6620  141.0694  168.7645 C.ar    1  UNL1        0.0806
     39 H         142.1149  140.1907  165.0973 H       1  UNL1        0.2108
@<TRIPOS>BOND
     1    12    13    1
     2    13    14    1
     3    14    15    1
     4    15    16    1
     5    16    17   ar
     6    17    18   ar
     7    18    19   ar
     8    19    11    1
     9    11     9    1
    10     9     1    1
    11     1     2    1
    12     2     3    1
    13     3     4    1
    14     4    23    1
    15    23    24    1
    16    24    25    1
    17    24    26    1
    18    26    27    1
    19    27    28   ar
    20    28    29    2
    21    28    30   ar
    22    30    31   ar
    23    31    32   ar
    24    32    33   ar
    25    33    34   ar
    26    34    35   ar
    27    35    36    1
    28    35    37   ar
    29    37    38   ar
    30     4     5    1
    31     5     6    1
    32     4     7    1
    33     7     8    1
    34    19    20   ar
    35    20    21   ar
    36    21    22    1
    37    22    13    1
    38    21    16   ar
    39     6     1    1
    40     8     1    1
    41    37    24    1
    42    38    27   ar
    43    38    32   ar
    44     9    10    1
    45    25    39    1
@<TRIPOS>MOLECULE
*****
 39 45 0 0 0
SMALL
GASTEIGER

@<TRIPOS>ATOM
      1 C         140.7628  139.5475  158.3912 C.3     1  UNL1        0.0700
      2 C         141.5420  140.0855  159.5545 C.3     1  UNL1        0.0193
      3 C         141.2381  139.6109  160.9446 C.3     1  UNL1        0.0287
      4 C         140.1548  138.5982  161.1714 C.3     1  UNL1        0.0955
      5 C         139.3756  138.0603  160.0080 C.3     1  UNL1        0.0287
      6 C         139.6797  138.5349  158.6179 C.3     1  UNL1        0.0193
      7 O         140.2852  138.8282  160.3916 O.3     1  UNL1       -0.3571
      8 C         140.5601  139.2573  159.1347 C.3     1  UNL1        0.1562
      9 N         141.0668  140.0221  157.0011 N.3     1  UNL1       -0.2926
     10 H         140.1850  140.0159  156.4884 H       1  UNL1        0.1236
     11 C         142.0633  139.2835  156.1576 C.3     1  UNL1        0.1152
     12 C         144.8445  132.1853  157.7796 C.3     1  UNL1        0.0513
     13 C         143.8286  133.0599  157.1064 C.3     1  UNL1        0.2095
     14 C         142.7241  132.4429  156.3007 C.3     1  UNL1        0.2487
     15 O         141.7081  133.3174  155.6275 O.3     1  UNL1       -0.4669
     16 C         141.7969  134.8089  155.7600 C.ar    1  UNL1        0.1914
     17 C         140.7811  135.6835  155.0868 C.ar    1  UNL1        0.1384
     18 N         140.8699  137.1750  155.2194 N.ar    1  UNL1       -0.2434
     19 C         141.9745  137.7919  156.0251 C.ar    1  UNL1        0.0782
     20 C         142.9904  136.9174  156.6983 C.ar    1  UNL1        0.0562
     21 C         142.9016  135.4259  156.5657 C.ar    1  UNL1        0.1750
     22 O         143.9174  134.5514  157.2389 O.3     1  UNL1       -0.4722
     23 C         139.8508  138.1236  162.5615 C.3     1  UNL1        0.0604
     24 C         140.9552  137.9953  163.5684 C.3     1  UNL1        0.1335
     25 O         141.5147  137.0010  162.5946 O.3     1  UNL1       -0.3806
     26 C         142.1764  137.6591  164.3718 C.3     1  UNL1        0.1402
     27 N         142.1409  138.4724  165.6317 N.ar    1  UNL1       -0.2915
     28 C         143.0800  138.5576  166.7982 C.ar    1  UNL1        0.2611
     29 O         144.3232  137.7187  166.8230 O.2     1  UNL1       -0.2670
     30 C         142.7758  139.4815  167.9400 C.ar    1  UNL1        0.0623
     31 C         141.5325  140.3204  167.9152 C.ar    1  UNL1        0.0254
     32 C         140.5935  140.2353  166.7487 C.ar    1  UNL1        0.0972
     33 N         139.2964  140.9452  166.4590 N.ar    1  UNL1       -0.2400
     34 C         138.4558  140.7542  165.2315 C.ar    1  UNL1        0.1282
     35 C         138.8901  139.7898  164.1678 C.ar    1  UNL1        0.1588
     36 F         138.0495  139.5987  162.9403 F       1  UNL1       -0.2027
     37 C         140.1648  139.0164  164.3318 C.ar    1  UNL1        0.0500
     38 C         140.8976  139.3113  165.6069 C.ar    1  UNL1        0.0806
     39 H         142.3481  136.6443  162.9396 H       1  UNL1        0.2108
@<TRIPOS>BOND
     1    12    13    1
     2    13    14    1
     3    14    15    1
     4    15    16    1
     5    16    17   ar
     6    17    18   ar
     7    18    19   ar
     8    19    11    1
     9    11     9    1
    10     9     1    1
    11     1     2    1
    12     2     3    1
    13     3     4    1
    14     4    23    1
    15    23    24    1
    16    24    25    1
    17    24    26    1
    18    26    27    1
    19    27    28   ar
    20    28    29    2
    21    28    30   ar
    22    30    31   ar
    23    31    32   ar
    24    32    33   ar
    25    33    34   ar
    26    34    35   ar
    27    35    36    1
    28    35    37   ar
    29    37    38   ar
    30     4     5    1
    31     5     6    1
    32     4     7    1
    33     7     8    1
    34    19    20   ar
    35    20    21   ar
    36    21    22    1
    37    22    13    1
    38    21    16   ar
    39     6     1    1
    40     8     1    1
    41    37    24    1
    42    38    27   ar
    43    38    32   ar
    44     9    10    1
    45    25    39    1
@<TRIPOS>MOLECULE
*****
 39 45 0 0 0
SMALL
GASTEIGER

@<TRIPOS>ATOM
      1 C         144.4967  142.7116  161.8223 C.3     1  UNL1        0.0700
      2 C         143.5695  143.6611  162.5214 C.3     1  UNL1        0.0193
      3 C         142.3963  144.2404  161.7879 C.3     1  UNL1        0.0287
      4 C         142.1502  143.8701  160.3552 C.3     1  UNL1        0.0955
      5 C         143.0774  142.9206  159.6561 C.3     1  UNL1        0.0287
      6 C         144.2506  142.3414  160.3897 C.3     1  UNL1        0.0193
      7 O         142.8062  143.5271  160.7157 O.3     1  UNL1       -0.3571
      8 C         143.8670  143.0033  161.3790 C.3     1  UNL1        0.1562
      9 N         145.6699  142.1323  162.5558 N.3     1  UNL1       -0.2926
     10 H         146.3097  141.7703  161.8487 H       1  UNL1        0.1236
     11 C         145.4614  141.0329  163.5546 C.3     1  UNL1        0.1152
     12 C         138.3999  138.8789  166.0541 C.3     1  UNL1        0.0513
     13 C         139.5543  138.7027  165.1126 C.3     1  UNL1        0.2095
     14 C         139.5091  137.6324  164.0627 C.3     1  UNL1        0.2487
     15 O         140.6635  137.4561  163.1211 O.3     1  UNL1       -0.4669
     16 C         141.8629  138.3503  163.2295 C.ar    1  UNL1        0.1914
     17 C         143.0173  138.1742  162.2880 C.ar    1  UNL1        0.1384
     18 N         144.2167  139.0683  162.3964 N.ar    1  UNL1       -0.2434
     19 C         144.2618  140.1387  163.4463 C.ar    1  UNL1        0.0782
     20 C         143.1075  140.3149  164.3878 C.ar    1  UNL1        0.0562
     21 C         141.9080  139.4207  164.2794 C.ar    1  UNL1        0.1750
     22 O         140.7538  139.5969  165.2210 O.3     1  UNL1       -0.4722
     23 C         140.9770  144.4494  159.6218 C.3     1  UNL1        0.0604
     24 C         139.9125  143.5444  159.0760 C.3     1  UNL1        0.1335
     25 O         140.0541  142.8427  160.3941 O.3     1  UNL1       -0.3806
     26 C         138.8776  142.4928  158.8057 C.3     1  UNL1        0.1402
     27 N         138.3189  142.7338  157.4346 N.ar    1  UNL1       -0.2915
     28 C         137.2713  142.0151  156.6371 C.ar    1  UNL1        0.2611
     29 O         136.5817  140.8145  157.2143 O.2     1  UNL1       -0.2670
     30 C         136.9134  142.4969  155.2625 C.ar    1  UNL1        0.0623
     31 C         137.6030  143.6975  154.6854 C.ar    1  UNL1        0.0254
     32 C         138.6506  144.4162  155.4829 C.ar    1  UNL1        0.0972
     33 N         139.4911  145.6255  155.1643 N.ar    1  UNL1       -0.2400
     34 C         140.5129  146.2387  156.0752 C.ar    1  UNL1        0.1282
     35 C         140.7641  145.6436  157.4290 C.ar    1  UNL1        0.1588
     36 F         141.7859  146.2568  158.3400 F       1  UNL1       -0.2027
     37 C         139.9934  144.4353  157.8719 C.ar    1  UNL1        0.0500
     38 C         139.0085  143.9343  156.8575 C.ar    1  UNL1        0.0806
     39 H         139.4411  142.0917  160.4281 H       1  UNL1        0.2108
@<TRIPOS>BOND
     1    12    13    1
     2    13    14    1
     3    14    15    1
     4    15    16    1
     5    16    17   ar
     6    17    18   ar
     7    18    19   ar
     8    19    11    1
     9    11     9    1
    10     9     1    1
    11     1     2    1
    12     2     3    1
    13     3     4    1
    14     4    23    1
    15    23    24    1
    16    24    25    1
    17    24    26    1
    18    26    27    1
    19    27    28   ar
    20    28    29    2
    21    28    30   ar
    22    30    31   ar
    23    31    32   ar
    24    32    33   ar
    25    33    34   ar
    26    34    35   ar
    27    35    36    1
    28    35    37   ar
    29    37    38   ar
    30     4     5    1
    31     5     6    1
    32     4     7    1
    33     7     8    1
    34    19    20   ar
    35    20    21   ar
    36    21    22    1
    37    22    13    1
    38    21    16   ar
    39     6     1    1
    40     8     1    1
    41    37    24    1
    42    38    27   ar
    43    38    32   ar
    44     9    10    1
    45    25    39    1
@<TRIPOS>MOLECULE
*****
 39 45 0 0 0
SMALL
GASTEIGER

@<TRIPOS>ATOM
      1 C         141.7723  144.3886  161.7084 C.3     1  UNL1        0.0700
      2 C         140.7146  144.2320  162.7605 C.3     1  UNL1        0.0193
      3 C         140.8930  143.2269  163.8596 C.3     1  UNL1        0.0287
      4 C         142.1291  142.3783  163.9066 C.3     1  UNL1        0.0955
      5 C         143.1868  142.5349  162.8545 C.3     1  UNL1        0.0287
      6 C         143.0083  143.5400  161.7554 C.3     1  UNL1        0.0193
      7 O         142.0759  142.9156  163.2849 O.3     1  UNL1       -0.3571
      8 C         141.9146  143.8244  162.2911 C.3     1  UNL1        0.1562
      9 N         141.5939  145.3937  160.6093 N.3     1  UNL1       -0.2926
     10 H         141.1087  146.1929  161.0171 H       1  UNL1        0.1236
     11 C         140.8431  145.0197  159.3658 C.3     1  UNL1        0.1152
     12 C         142.0090  137.6953  156.9689 C.3     1  UNL1        0.0513
     13 C         141.1206  138.7342  157.5867 C.3     1  UNL1        0.2095
     14 C         139.7325  138.3703  158.0233 C.3     1  UNL1        0.2487
     15 O         138.8440  139.4091  158.6411 O.3     1  UNL1       -0.4669
     16 C         139.3438  140.8117  158.8223 C.ar    1  UNL1        0.1914
     17 C         138.4555  141.8505  159.4401 C.ar    1  UNL1        0.1384
     18 N         138.9553  143.2532  159.6212 N.ar    1  UNL1       -0.2434
     19 C         140.3434  143.6170  159.1846 C.ar    1  UNL1        0.0782
     20 C         141.2317  142.5782  158.5668 C.ar    1  UNL1        0.0562
     21 C         140.7319  141.1756  158.3856 C.ar    1  UNL1        0.1750
     22 O         141.6204  140.1368  157.7679 O.3     1  UNL1       -0.4722
     23 C         142.3075  141.3732  165.0056 C.3     1  UNL1        0.0604
     24 C         142.4564  141.8331  166.4256 C.3     1  UNL1        0.1335
     25 O         143.6239  142.6059  165.8874 O.3     1  UNL1       -0.3806
     26 C         142.8493  142.4545  167.7331 C.3     1  UNL1        0.1402
     27 N         141.8935  141.9697  168.7826 N.ar    1  UNL1       -0.2915
     28 C         141.7918  142.2479  170.2530 C.ar    1  UNL1        0.2611
     29 O         142.7755  143.1690  170.9118 O.2     1  UNL1       -0.2670
     30 C         140.7065  141.6051  171.0646 C.ar    1  UNL1        0.0623
     31 C         139.7228  140.6840  170.4057 C.ar    1  UNL1        0.0254
     32 C         139.8245  140.4058  168.9353 C.ar    1  UNL1        0.0972
     33 N         138.9925  139.5408  168.0243 N.ar    1  UNL1       -0.2400
     34 C         139.2185  139.3585  166.5527 C.ar    1  UNL1        0.1282
     35 C         140.3512  140.0702  165.8741 C.ar    1  UNL1        0.1588
     36 F         140.5772  139.8879  164.4025 F       1  UNL1       -0.2027
     37 C         141.2578  140.9642  166.6671 C.ar    1  UNL1        0.0500
     38 C         140.9099  141.0486  168.1237 C.ar    1  UNL1        0.0806
     39 H         144.0416  143.1039  166.6073 H       1  UNL1        0.2108
@<TRIPOS>BOND
     1    12    13    1
     2    13    14    1
     3    14    15    1
     4    15    16    1
     5    16    17   ar
     6    17    18   ar
     7    18    19   ar
     8    19    11    1
     9    11     9    1
    10     9     1    1
    11     1     2    1
    12     2     3    1
    13     3     4    1
    14     4    23    1
    15    23    24    1
    16    24    25    1
    17    24    26    1
    18    26    27    1
    19    27    28   ar
    20    28    29    2
    21    28    30   ar
    22    30    31   ar
    23    31    32   ar
    24    32    33   ar
    25    33    34   ar
    26    34    35   ar
    27    35    36    1
    28    35    37   ar
    29    37    38   ar
    30     4     5    1
    31     5     6    1
    32     4     7    1
    33     7     8    1
    34    19    20   ar
    35    20    21   ar
    36    21    22    1
    37    22    13    1
    38    21    16   ar
    39     6     1    1
    40     8     1    1
    41    37    24    1
    42    38    27   ar
    43    38    32   ar
    44     9    10    1
    45    25    39    1
@<TRIPOS>MOLECULE
*****
 39 45 0 0 0
SMALL
GASTEIGER

@<TRIPOS>ATOM
      1 C         144.5014  142.7265  162.0455 C.3     1  UNL1        0.0700
      2 C         143.7406  143.8235  162.7295 C.3     1  UNL1        0.0193
      3 C         142.5224  144.4095  162.0795 C.3     1  UNL1        0.0287
      4 C         142.0649  143.8985  160.7453 C.3     1  UNL1        0.0955
      5 C         142.8257  142.8015  160.0614 C.3     1  UNL1        0.0287
      6 C         144.0439  142.2155  160.7115 C.3     1  UNL1        0.0193
      7 O         142.7383  143.5462  161.0623 O.3     1  UNL1       -0.3571
      8 C         143.8397  143.0163  161.6501 C.3     1  UNL1        0.1562
      9 N         145.7196  142.1404  162.6956 N.3     1  UNL1       -0.2926
     10 H         146.3121  141.7858  161.9449 H       1  UNL1        0.1236
     11 C         145.5760  141.0310  163.6948 C.3     1  UNL1        0.1152
     12 C         138.6060  139.1622  166.6405 C.3     1  UNL1        0.0513
     13 C         139.7042  138.9199  165.6477 C.3     1  UNL1        0.2095
     14 C         139.5769  137.8124  164.6442 C.3     1  UNL1        0.2487
     15 O         140.6750  137.5700  163.6514 O.3     1  UNL1       -0.4669
     16 C         141.9002  138.4353  163.6623 C.ar    1  UNL1        0.1914
     17 C         142.9983  138.1930  162.6695 C.ar    1  UNL1        0.1384
     18 N         144.2236  139.0582  162.6804 N.ar    1  UNL1       -0.2434
     19 C         144.3507  140.1658  163.6840 C.ar    1  UNL1        0.0782
     20 C         143.2527  140.4080  164.6767 C.ar    1  UNL1        0.0562
     21 C         142.0274  139.5428  164.6658 C.ar    1  UNL1        0.1750
     22 O         140.9294  139.7851  165.6586 O.3     1  UNL1       -0.4722
     23 C         140.8467  144.4845  160.0953 C.3     1  UNL1        0.0604
     24 C         140.9190  144.9903  158.6850 C.3     1  UNL1        0.1335
     25 O         141.9623  145.9158  159.2372 O.3     1  UNL1       -0.3806
     26 C         141.2095  145.6895  157.3901 C.3     1  UNL1        0.1402
     27 N         140.3306  145.0903  156.3325 N.ar    1  UNL1       -0.2915
     28 C         140.1817  145.3805  154.8684 C.ar    1  UNL1        0.2611
     29 O         141.0153  146.4501  154.2272 O.2     1  UNL1       -0.2670
     30 C         139.1992  144.6011  154.0455 C.ar    1  UNL1        0.0623
     31 C         138.3656  143.5316  154.6867 C.ar    1  UNL1        0.0254
     32 C         138.5145  143.2414  156.1508 C.ar    1  UNL1        0.0972
     33 N         137.8237  142.2445  157.0450 N.ar    1  UNL1       -0.2400
     34 C         138.0814  142.0676  158.5120 C.ar    1  UNL1        0.1282
     35 C         139.0999  142.9248  159.2033 C.ar    1  UNL1        0.1588
     36 F         139.3576  142.7478  160.6704 F       1  UNL1       -0.2027
     37 C         139.8607  143.9590  158.4276 C.ar    1  UNL1        0.0500
     38 C         139.4970  144.0208  156.9737 C.ar    1  UNL1        0.0806
     39 H         142.2984  146.4847  158.5270 H       1  UNL1        0.2108
@<TRIPOS>BOND
     1    12    13    1
     2    13    14    1
     3    14    15    1
     4    15    16    1
     5    16    17   ar
     6    17    18   ar
     7    18    19   ar
     8    19    11    1
     9    11     9    1
    10     9     1    1
    11     1     2    1
    12     2     3    1
    13     3     4    1
    14     4    23    1
    15    23    24    1
    16    24    25    1
    17    24    26    1
    18    26    27    1
    19    27    28   ar
    20    28    29    2
    21    28    30   ar
    22    30    31   ar
    23    31    32   ar
    24    32    33   ar
    25    33    34   ar
    26    34    35   ar
    27    35    36    1
    28    35    37   ar
    29    37    38   ar
    30     4     5    1
    31     5     6    1
    32     4     7    1
    33     7     8    1
    34    19    20   ar
    35    20    21   ar
    36    21    22    1
    37    22    13    1
    38    21    16   ar
    39     6     1    1
    40     8     1    1
    41    37    24    1
    42    38    27   ar
    43    38    32   ar
    44     9    10    1
    45    25    39    1
@<TRIPOS>MOLECULE
*****
 39 45 0 0 0
SMALL
GASTEIGER

@<TRIPOS>ATOM
      1 C         138.4297  138.9795  165.7295 C.3     1  UNL1        0.0700
      2 C         138.8632  137.6433  165.2037 C.3     1  UNL1        0.0193
      3 C         139.0024  137.4280  163.7258 C.3     1  UNL1        0.0287
      4 C         138.7081  138.5491  162.7735 C.3     1  UNL1        0.0955
      5 C         138.2746  139.8854  163.2993 C.3     1  UNL1        0.0287
      6 C         138.1354  140.1006  164.7773 C.3     1  UNL1        0.0193
      7 O         138.6177  138.7147  163.5750 O.3     1  UNL1       -0.3571
      8 C         138.4919  138.9094  164.9113 C.3     1  UNL1        0.1562
      9 N         138.2905  139.1948  167.2074 N.3     1  UNL1       -0.2926
     10 H         137.4367  139.7349  167.3472 H       1  UNL1        0.1236
     11 C         139.3761  139.8963  167.9686 C.3     1  UNL1        0.1152
     12 C         143.1639  145.2075  163.7031 C.3     1  UNL1        0.0513
     13 C         143.1438  143.8876  164.4156 C.3     1  UNL1        0.2095
     14 C         144.3663  143.0184  164.4188 C.3     1  UNL1        0.2487
     15 O         144.3463  141.6985  165.1313 O.3     1  UNL1       -0.4669
     16 C         143.1037  141.2480  165.8406 C.ar    1  UNL1        0.1914
     17 C         143.0836  139.9282  166.5531 C.ar    1  UNL1        0.1384
     18 N         141.8411  139.4777  167.2624 N.ar    1  UNL1       -0.2434
     19 C         140.6186  140.3469  167.2592 C.ar    1  UNL1        0.0782
     20 C         140.6387  141.6667  166.5467 C.ar    1  UNL1        0.0562
     21 C         141.8813  142.1173  165.8374 C.ar    1  UNL1        0.1750
     22 O         141.9013  143.4371  165.1249 O.3     1  UNL1       -0.4722
     23 C         138.8473  138.3339  161.2956 C.3     1  UNL1        0.0604
     24 C         140.1646  138.5816  160.6224 C.3     1  UNL1        0.1335
     25 O         140.6950  137.6408  161.6633 O.3     1  UNL1       -0.3806
     26 C         141.5928  138.6326  160.1667 C.3     1  UNL1        0.1402
     27 N         141.6698  139.5532  158.9849 N.ar    1  UNL1       -0.2915
     28 C         142.8187  139.9867  158.1235 C.ar    1  UNL1        0.2611
     29 O         144.1994  139.4688  158.3983 O.2     1  UNL1       -0.2670
     30 C         142.5869  140.9382  156.9873 C.ar    1  UNL1        0.0623
     31 C         141.2062  141.4561  156.7126 C.ar    1  UNL1        0.0254
     32 C         140.0573  141.0225  157.5740 C.ar    1  UNL1        0.0972
     33 N         138.5925  141.3732  157.5330 N.ar    1  UNL1       -0.2400
     34 C         137.5472  140.8534  158.4748 C.ar    1  UNL1        0.1282
     35 C         137.9304  139.9021  159.5694 C.ar    1  UNL1        0.1588
     36 F         136.8851  139.3822  160.5113 F       1  UNL1       -0.2027
     37 C         139.3589  139.4706  159.7221 C.ar    1  UNL1        0.0500
     38 C         140.2891  140.0711  158.7101 C.ar    1  UNL1        0.0806
     39 H         141.6509  137.5296  161.5417 H       1  UNL1        0.2108
@<TRIPOS>BOND
     1    12    13    1
     2    13    14    1
     3    14    15    1
     4    15    16    1
     5    16    17   ar
     6    17    18   ar
     7    18    19   ar
     8    19    11    1
     9    11     9    1
    10     9     1    1
    11     1     2    1
    12     2     3    1
    13     3     4    1
    14     4    23    1
    15    23    24    1
    16    24    25    1
    17    24    26    1
    18    26    27    1
    19    27    28   ar
    20    28    29    2
    21    28    30   ar
    22    30    31   ar
    23    31    32   ar
    24    32    33   ar
    25    33    34   ar
    26    34    35   ar
    27    35    36    1
    28    35    37   ar
    29    37    38   ar
    30     4     5    1
    31     5     6    1
    32     4     7    1
    33     7     8    1
    34    19    20   ar
    35    20    21   ar
    36    21    22    1
    37    22    13    1
    38    21    16   ar
    39     6     1    1
    40     8     1    1
    41    37    24    1
    42    38    27   ar
    43    38    32   ar
    44     9    10    1
    45    25    39    1
@<TRIPOS>MOLECULE
*****
 39 45 0 0 0
SMALL
GASTEIGER

@<TRIPOS>ATOM
      1 C         141.9613  139.0326  159.5789 C.3     1  UNL1        0.0700
      2 C         140.9390  139.8927  160.2608 C.3     1  UNL1        0.0193
      3 C         140.6279  139.6799  161.7127 C.3     1  UNL1        0.0287
      4 C         141.3392  138.6068  162.4827 C.3     1  UNL1        0.0955
      5 C         142.3614  137.7466  161.8008 C.3     1  UNL1        0.0287
      6 C         142.6725  137.9595  160.3489 C.3     1  UNL1        0.0193
      7 O         141.5433  138.6859  161.6889 O.3     1  UNL1       -0.3571
      8 C         141.8245  138.8784  160.3762 C.3     1  UNL1        0.1562
      9 N         142.2724  139.2454  158.1271 N.3     1  UNL1       -0.2926
     10 H         142.2615  140.2529  157.9682 H       1  UNL1        0.1236
     11 C         141.3973  138.6315  157.0748 C.3     1  UNL1        0.1152
     12 C         145.3402  131.9370  157.6974 C.3     1  UNL1        0.0513
     13 C         144.2607  132.7535  157.0509 C.3     1  UNL1        0.2095
     14 C         143.4160  132.1550  155.9655 C.3     1  UNL1        0.2487
     15 O         142.3364  132.9715  155.3189 O.3     1  UNL1       -0.4669
     16 C         142.1017  134.3865  155.7579 C.ar    1  UNL1        0.1914
     17 C         141.0222  135.2030  155.1114 C.ar    1  UNL1        0.1384
     18 N         140.7874  136.6180  155.5504 N.ar    1  UNL1       -0.2434
     19 C         141.6322  137.2165  156.6359 C.ar    1  UNL1        0.0782
     20 C         142.7117  136.4000  157.2823 C.ar    1  UNL1        0.0562
     21 C         142.9464  134.9850  156.8434 C.ar    1  UNL1        0.1750
     22 O         144.0259  134.1685  157.4899 O.3     1  UNL1       -0.4722
     23 C         141.0280  138.3940  163.9346 C.3     1  UNL1        0.0604
     24 C         141.5879  139.3278  164.9663 C.3     1  UNL1        0.1335
     25 O         142.7551  139.4130  164.0279 O.3     1  UNL1       -0.3806
     26 C         142.3918  140.2794  165.8019 C.3     1  UNL1        0.1402
     27 N         141.6045  140.5871  167.0411 N.ar    1  UNL1       -0.2915
     28 C         141.8959  141.4623  168.2239 C.ar    1  UNL1        0.2611
     29 O         143.1864  142.2237  168.2936 O.2     1  UNL1       -0.2670
     30 C         140.8969  141.5760  169.3369 C.ar    1  UNL1        0.0623
     31 C         139.6064  140.8146  169.2671 C.ar    1  UNL1        0.0254
     32 C         139.3150  139.9394  168.0843 C.ar    1  UNL1        0.0972
     33 N         138.1257  139.0760  167.7518 N.ar    1  UNL1       -0.2400
     34 C         137.9740  138.2448  166.5125 C.ar    1  UNL1        0.1282
     35 C         139.0631  138.2304  165.4811 C.ar    1  UNL1        0.1588
     36 F         138.9114  137.3991  164.2418 F       1  UNL1       -0.2027
     37 C         140.3038  139.0474  165.6890 C.ar    1  UNL1        0.0500
     38 C         140.3140  139.8257  166.9713 C.ar    1  UNL1        0.0806
     39 H         143.4247  140.0093  164.3981 H       1  UNL1        0.2108
@<TRIPOS>BOND
     1    12    13    1
     2    13    14    1
     3    14    15    1
     4    15    16    1
     5    16    17   ar
     6    17    18   ar
     7    18    19   ar
     8    19    11    1
     9    11     9    1
    10     9     1    1
    11     1     2    1
    12     2     3    1
    13     3     4    1
    14     4    23    1
    15    23    24    1
    16    24    25    1
    17    24    26    1
    18    26    27    1
    19    27    28   ar
    20    28    29    2
    21    28    30   ar
    22    30    31   ar
    23    31    32   ar
    24    32    33   ar
    25    33    34   ar
    26    34    35   ar
    27    35    36    1
    28    35    37   ar
    29    37    38   ar
    30     4     5    1
    31     5     6    1
    32     4     7    1
    33     7     8    1
    34    19    20   ar
    35    20    21   ar
    36    21    22    1
    37    22    13    1
    38    21    16   ar
    39     6     1    1
    40     8     1    1
    41    37    24    1
    42    38    27   ar
    43    38    32   ar
    44     9    10    1
    45    25    39    1
@<TRIPOS>MOLECULE
*****
 39 45 0 0 0
SMALL
GASTEIGER

@<TRIPOS>ATOM
      1 C         137.8588  140.4337  161.3016 C.3     1  UNL1        0.0700
      2 C         138.1271  138.9586  161.2583 C.3     1  UNL1        0.0193
      3 C         138.5000  138.2269  162.5136 C.3     1  UNL1        0.0287
      4 C         138.6047  138.9705  163.8122 C.3     1  UNL1        0.0955
      5 C         138.3365  140.4456  163.8555 C.3     1  UNL1        0.0287
      6 C         137.9636  141.1772  162.6002 C.3     1  UNL1        0.0193
      7 O         138.3972  139.4144  163.1505 O.3     1  UNL1       -0.3571
      8 C         138.0600  140.0759  162.0155 C.3     1  UNL1        0.1562
      9 N         137.4859  141.1654  160.0464 N.3     1  UNL1       -0.2926
     10 H         137.0448  140.4842  159.4285 H       1  UNL1        0.1236
     11 C         138.5436  141.8597  159.2407 C.3     1  UNL1        0.1152
     12 C         145.4765  141.8031  162.8020 C.3     1  UNL1        0.0513
     13 C         144.2760  142.5546  162.3078 C.3     1  UNL1        0.2095
     14 C         144.1861  144.0385  162.5064 C.3     1  UNL1        0.2487
     15 O         142.9857  144.7901  162.0123 O.3     1  UNL1       -0.4669
     16 C         141.8752  144.0575  161.3194 C.ar    1  UNL1        0.1914
     17 C         140.6747  144.8089  160.8252 C.ar    1  UNL1        0.1384
     18 N         139.5642  144.0763  160.1323 N.ar    1  UNL1       -0.2434
     19 C         139.6542  142.5923  159.9336 C.ar    1  UNL1        0.0782
     20 C         140.8546  141.8408  160.4278 C.ar    1  UNL1        0.0562
     21 C         141.9651  142.5734  161.1207 C.ar    1  UNL1        0.1750
     22 O         143.1655  141.8219  161.6149 O.3     1  UNL1       -0.4722
     23 C         138.9776  138.2388  165.0674 C.3     1  UNL1        0.0604
     24 C         138.9661  138.9557  166.3849 C.3     1  UNL1        0.1335
     25 O         137.4756  138.8697  166.2402 O.3     1  UNL1       -0.3806
     26 C         138.6430  139.6546  167.6722 C.3     1  UNL1        0.1402
     27 N         139.9362  140.0226  168.3372 N.ar    1  UNL1       -0.2915
     28 C         140.2368  140.7261  169.6274 C.ar    1  UNL1        0.2611
     29 O         139.1144  141.1975  170.5038 O.2     1  UNL1       -0.2670
     30 C         141.6597  140.9582  170.0412 C.ar    1  UNL1        0.0623
     31 C         142.7821  140.4868  169.1649 C.ar    1  UNL1        0.0254
     32 C         142.4816  139.7833  167.8747 C.ar    1  UNL1        0.0972
     33 N         143.3886  139.2116  166.8159 N.ar    1  UNL1       -0.2400
     34 C         142.9360  138.5264  165.5607 C.ar    1  UNL1        0.1282
     35 C         141.4713  138.3665  165.2799 C.ar    1  UNL1        0.1588
     36 F         141.0187  137.6813  164.0246 F       1  UNL1       -0.2027
     37 C         140.4590  138.8918  166.2543 C.ar    1  UNL1        0.0500
     38 C         141.0586  139.5512  167.4608 C.ar    1  UNL1        0.0806
     39 H         137.0517  139.2851  167.0074 H       1  UNL1        0.2108
@<TRIPOS>BOND
     1    12    13    1
     2    13    14    1
     3    14    15    1
     4    15    16    1
     5    16    17   ar
     6    17    18   ar
     7    18    19   ar
     8    19    11    1
     9    11     9    1
    10     9     1    1
    11     1     2    1
    12     2     3    1
    13     3     4    1
    14     4    23    1
    15    23    24    1
    16    24    25    1
    17    24    26    1
    18    26    27    1
    19    27    28   ar
    20    28    29    2
    21    28    30   ar
    22    30    31   ar
    23    31    32   ar
    24    32    33   ar
    25    33    34   ar
    26    34    35   ar
    27    35    36    1
    28    35    37   ar
    29    37    38   ar
    30     4     5    1
    31     5     6    1
    32     4     7    1
    33     7     8    1
    34    19    20   ar
    35    20    21   ar
    36    21    22    1
    37    22    13    1
    38    21    16   ar
    39     6     1    1
    40     8     1    1
    41    37    24    1
    42    38    27   ar
    43    38    32   ar
    44     9    10    1
    45    25    39    1
