@<TRIPOS>MOLECULE
*****
 33 36 0 0 0
SMALL
GASTEIGER

@<TRIPOS>ATOM
      1 C         139.9513  141.9835  165.7570 C.ar    1  UNL1       -0.0019
      2 C         140.4398  142.7640  166.9411 C.ar    1  UNL1       -0.0003
      3 C         140.3992  142.1533  168.3105 C.ar    1  UNL1        0.0038
      4 C         139.8701  140.7619  168.4958 C.ar    1  UNL1        0.0712
      5 C         139.3816  139.9814  167.3117 C.ar    1  UNL1        0.0016
      6 C         139.4222  140.5922  165.9423 C.ar    1  UNL1        0.0040
      7 C         139.8296  140.1512  169.8652 C.3     1  UNL1        0.4186
      8 F         139.7890  139.5405  171.2346 F       1  UNL1       -0.1659
      9 F         138.5243  140.8397  170.1337 F       1  UNL1       -0.1659
     10 F         141.1349  139.4626  169.5968 F       1  UNL1       -0.1659
     11 C         141.0316  143.6233  164.0558 C.2     1  UNL1        0.0579
     12 C         139.9918  142.5942  164.3876 C.2     1  UNL1        0.0044
     13 C         143.4248  142.2467  159.4053 C.3     1  UNL1        0.0826
     14 C         143.3843  141.6360  160.7747 C.3     1  UNL1        0.0309
     15 C         142.6000  142.2984  161.8684 C.3     1  UNL1        0.0942
     16 N         141.8564  143.5716  161.5926 N.am    1  UNL1       -0.2761
     17 C         141.0721  144.2340  162.6864 C.2     1  UNL1        0.2492
     18 O         140.3285  145.5072  162.4106 O.2     1  UNL1       -0.2699
     19 C         141.8969  144.1823  160.2232 C.3     1  UNL1        0.0942
     20 C         142.6812  143.5199  159.1296 C.3     1  UNL1        0.0309
     21 C         146.7970  141.4438  155.4222 C.3     1  UNL1        0.0773
     22 C         145.7590  141.2152  156.4807 C.ar    1  UNL1        0.1809
     23 N         145.0726  139.9146  156.7763 N.ar    1  UNL1       -0.0606
     24 O         144.1147  140.1427  157.9078 O.2     1  UNL1       -0.3374
     25 C         144.2091  141.5843  158.3115 C.ar    1  UNL1        0.2359
     26 N         145.2253  142.2471  157.4296 N.ar    1  UNL1       -0.1949
     27 C         138.9337  139.8116  164.7582 C.3     1  UNL1        0.1776
     28 N         139.8954  138.9869  163.9550 N.ar    1  UNL1       -0.1467
     29 N         139.6022  137.6601  163.3196 N.ar    1  UNL1       -0.0451
     30 N         140.8447  137.1974  162.6181 N.ar    1  UNL1       -0.1123
     31 C         141.9058  138.2382  162.8200 C.ar    1  UNL1        0.1838
     32 C         143.3076  138.1828  162.2888 C.3     1  UNL1        0.0776
     33 N         141.3191  139.3442  163.6462 N.ar    1  UNL1       -0.1339
@<TRIPOS>BOND
     1    21    22    1
     2    22    23   ar
     3    23    24   ar
     4    24    25   ar
     5    25    13    1
     6    13    14    1
     7    14    15    1
     8    15    16    1
     9    16    17   am
    10    17    18    2
    11    17    11    1
    12    11    12    2
    13    12     1    1
    14     1     2   ar
    15     2     3   ar
    16     3     4   ar
    17     4     7    1
    18     7     8    1
    19     7     9    1
    20     7    10    1
    21     4     5   ar
    22     5     6   ar
    23     6    27    1
    24    27    28    1
    25    28    29   ar
    26    29    30   ar
    27    30    31   ar
    28    31    32    1
    29    31    33   ar
    30    16    19    1
    31    19    20    1
    32    25    26   ar
    33    26    22   ar
    34    20    13    1
    35     6     1   ar
    36    33    28   ar
@<TRIPOS>MOLECULE
*****
 33 36 0 0 0
SMALL
GASTEIGER

@<TRIPOS>ATOM
      1 C         140.0740  142.1669  159.4633 C.ar    1  UNL1       -0.0019
      2 C         139.7192  142.0432  158.0111 C.ar    1  UNL1       -0.0003
      3 C         139.7493  143.2537  157.1259 C.ar    1  UNL1        0.0038
      4 C         140.1343  144.5881  157.6929 C.ar    1  UNL1        0.0712
      5 C         140.4891  144.7118  159.1451 C.ar    1  UNL1        0.0016
      6 C         140.4590  143.5011  160.0303 C.ar    1  UNL1        0.0040
      7 C         140.1645  145.7986  156.8077 C.3     1  UNL1        0.4186
      8 F         140.1946  147.0092  155.9225 F       1  UNL1       -0.1659
      9 F         141.4882  146.1933  157.3925 F       1  UNL1       -0.1659
     10 F         138.8408  145.4040  156.2229 F       1  UNL1       -0.1659
     11 C         138.7638  140.5453  161.0138 C.2     1  UNL1        0.0579
     12 C         140.0439  140.9563  160.3485 C.2     1  UNL1        0.0044
     13 C         139.1136  139.7987  166.3588 C.3     1  UNL1        0.0826
     14 C         139.1437  141.0092  165.4736 C.3     1  UNL1        0.0309
     15 C         139.0171  140.8546  163.9870 C.3     1  UNL1        0.0942
     16 N         138.8603  139.4894  163.3856 N.am    1  UNL1       -0.2761
     17 C         138.7336  139.3348  161.8990 C.2     1  UNL1        0.2492
     18 O         138.5768  137.9696  161.2976 O.2     1  UNL1       -0.2699
     19 C         138.8301  138.2788  164.2708 C.3     1  UNL1        0.0942
     20 C         138.9568  138.4335  165.7574 C.3     1  UNL1        0.0309
     21 C         140.9399  141.1250  171.1324 C.3     1  UNL1        0.0773
     22 C         140.0797  140.5629  170.0396 C.ar    1  UNL1        0.1809
     23 N         138.7904  139.8193  170.2268 N.ar    1  UNL1       -0.0606
     24 O         138.2716  139.4425  168.8707 O.2     1  UNL1       -0.3374
     25 C         139.2402  139.9533  167.8455 C.ar    1  UNL1        0.2359
     26 N         140.3576  140.6457  168.5679 N.ar    1  UNL1       -0.1949
     27 C         140.8138  143.6248  161.4825 C.3     1  UNL1        0.1776
     28 N         139.7548  143.9729  162.4862 N.ar    1  UNL1       -0.1467
     29 N         138.2739  143.9519  162.2487 N.ar    1  UNL1       -0.0451
     30 N         137.5946  144.3691  163.5194 N.ar    1  UNL1       -0.1123
     31 C         138.6559  144.6480  164.5422 C.ar    1  UNL1        0.1838
     32 C         138.4229  145.0936  165.9555 C.3     1  UNL1        0.0776
     33 N         139.9909  144.4032  163.9037 N.ar    1  UNL1       -0.1339
@<TRIPOS>BOND
     1    21    22    1
     2    22    23   ar
     3    23    24   ar
     4    24    25   ar
     5    25    13    1
     6    13    14    1
     7    14    15    1
     8    15    16    1
     9    16    17   am
    10    17    18    2
    11    17    11    1
    12    11    12    2
    13    12     1    1
    14     1     2   ar
    15     2     3   ar
    16     3     4   ar
    17     4     7    1
    18     7     8    1
    19     7     9    1
    20     7    10    1
    21     4     5   ar
    22     5     6   ar
    23     6    27    1
    24    27    28    1
    25    28    29   ar
    26    29    30   ar
    27    30    31   ar
    28    31    32    1
    29    31    33   ar
    30    16    19    1
    31    19    20    1
    32    25    26   ar
    33    26    22   ar
    34    20    13    1
    35     6     1   ar
    36    33    28   ar
@<TRIPOS>MOLECULE
*****
 33 36 0 0 0
SMALL
GASTEIGER

@<TRIPOS>ATOM
      1 C         139.7853  140.2508  166.1155 C.ar    1  UNL1       -0.0019
      2 C         139.1783  139.5224  167.2778 C.ar    1  UNL1       -0.0003
      3 C         139.2935  140.0900  168.6615 C.ar    1  UNL1        0.0038
      4 C         140.0158  141.3859  168.8829 C.ar    1  UNL1        0.0712
      5 C         140.6228  142.1143  167.7205 C.ar    1  UNL1        0.0016
      6 C         140.5075  141.5467  166.3368 C.ar    1  UNL1        0.0040
      7 C         140.1310  141.9534  170.2665 C.3     1  UNL1        0.4186
      8 F         140.2463  142.5210  171.6502 F       1  UNL1       -0.1659
      9 F         140.0211  143.3407  169.7067 F       1  UNL1       -0.1659
     10 F         140.2410  140.5662  170.8264 F       1  UNL1       -0.1659
     11 C         138.3842  139.8171  163.9709 C.2     1  UNL1        0.0579
     12 C         139.6700  139.6833  164.7318 C.2     1  UNL1        0.0044
     13 C         138.4165  141.9823  159.0151 C.3     1  UNL1        0.0826
     14 C         138.5318  142.5499  160.3987 C.3     1  UNL1        0.0309
     15 C         138.4826  141.6390  161.5894 C.3     1  UNL1        0.0942
     16 N         138.3182  140.1605  161.3964 N.am    1  UNL1       -0.2761
     17 C         138.2690  139.2496  162.5872 C.2     1  UNL1        0.2492
     18 O         138.1046  137.7712  162.3943 O.2     1  UNL1       -0.2699
     19 C         138.2029  139.5930  160.0128 C.3     1  UNL1        0.0942
     20 C         138.2521  140.5039  158.8221 C.3     1  UNL1        0.0309
     21 C         137.2149  144.3515  154.4517 C.3     1  UNL1        0.0773
     22 C         137.9134  143.9822  155.7268 C.ar    1  UNL1        0.1809
     23 N         139.1694  144.6077  156.2571 N.ar    1  UNL1       -0.0606
     24 O         139.5107  143.9347  157.5534 O.2     1  UNL1       -0.3374
     25 C         138.4657  142.8932  157.8243 C.ar    1  UNL1        0.2359
     26 N         137.4785  142.9226  156.6953 N.ar    1  UNL1       -0.1949
     27 C         141.1145  142.2751  165.1744 C.3     1  UNL1        0.1776
     28 N         140.3146  143.3065  164.4352 N.ar    1  UNL1       -0.1467
     29 N         138.8674  143.6292  164.6623 N.ar    1  UNL1       -0.0451
     30 N         138.4798  144.7185  163.7066 N.ar    1  UNL1       -0.1123
     31 C         139.6876  145.0690  162.8889 C.ar    1  UNL1        0.1838
     32 C         139.7503  146.1095  161.8103 C.3     1  UNL1        0.0776
     33 N         140.8215  144.1964  163.3393 N.ar    1  UNL1       -0.1339
@<TRIPOS>BOND
     1    21    22    1
     2    22    23   ar
     3    23    24   ar
     4    24    25   ar
     5    25    13    1
     6    13    14    1
     7    14    15    1
     8    15    16    1
     9    16    17   am
    10    17    18    2
    11    17    11    1
    12    11    12    2
    13    12     1    1
    14     1     2   ar
    15     2     3   ar
    16     3     4   ar
    17     4     7    1
    18     7     8    1
    19     7     9    1
    20     7    10    1
    21     4     5   ar
    22     5     6   ar
    23     6    27    1
    24    27    28    1
    25    28    29   ar
    26    29    30   ar
    27    30    31   ar
    28    31    32    1
    29    31    33   ar
    30    16    19    1
    31    19    20    1
    32    25    26   ar
    33    26    22   ar
    34    20    13    1
    35     6     1   ar
    36    33    28   ar
@<TRIPOS>MOLECULE
*****
 33 36 0 0 0
SMALL
GASTEIGER

@<TRIPOS>ATOM
      1 C         139.7708  141.7701  165.8276 C.ar    1  UNL1       -0.0019
      2 C         140.3096  142.6329  166.9300 C.ar    1  UNL1       -0.0003
      3 C         140.3606  142.1099  168.3349 C.ar    1  UNL1        0.0038
      4 C         139.8728  140.7241  168.6375 C.ar    1  UNL1        0.0712
      5 C         139.3340  139.8613  167.5351 C.ar    1  UNL1        0.0016
      6 C         139.2830  140.3843  166.1301 C.ar    1  UNL1        0.0040
      7 C         139.9239  140.2011  170.0424 C.3     1  UNL1        0.4186
      8 F         139.9749  139.6781  171.4473 F       1  UNL1       -0.1659
      9 F         141.2254  139.5190  169.7412 F       1  UNL1       -0.1659
     10 F         138.6223  140.8831  170.3436 F       1  UNL1       -0.1659
     11 C         138.4213  142.7789  163.8499 C.2     1  UNL1        0.0579
     12 C         139.7198  142.2931  164.4227 C.2     1  UNL1        0.0044
     13 C         138.8112  140.4726  158.9736 C.3     1  UNL1        0.0826
     14 C         138.8622  139.9496  160.3785 C.3     1  UNL1        0.0309
     15 C         138.7152  140.8927  161.5356 C.3     1  UNL1        0.0942
     16 N         138.5172  142.3588  161.2878 N.am    1  UNL1       -0.2761
     17 C         138.3703  143.3019  162.4450 C.2     1  UNL1        0.2492
     18 O         138.1723  144.7680  162.1972 O.2     1  UNL1       -0.2699
     19 C         138.4662  142.8818  159.8829 C.3     1  UNL1        0.0942
     20 C         138.6132  141.9387  158.7258 C.3     1  UNL1        0.0309
     21 C         140.5682  136.6010  155.8423 C.3     1  UNL1        0.0773
     22 C         139.7657  137.7500  156.3771 C.ar    1  UNL1        0.1809
     23 N         138.6027  138.4067  155.6942 N.ar    1  UNL1       -0.0606
     24 O         138.1036  139.5065  156.5837 O.2     1  UNL1       -0.3374
     25 C         138.9581  139.5295  157.8163 C.ar    1  UNL1        0.2359
     26 N         139.9853  138.4440  157.6886 N.ar    1  UNL1       -0.1949
     27 C         138.7442  139.5215  165.0277 C.3     1  UNL1        0.1776
     28 N         139.6872  138.8085  164.1044 N.ar    1  UNL1       -0.1467
     29 N         139.3418  137.6546  163.2104 N.ar    1  UNL1       -0.0451
     30 N         140.5822  137.2571  162.4664 N.ar    1  UNL1       -0.1123
     31 C         141.6942  138.1654  162.9007 C.ar    1  UNL1        0.1838
     32 C         143.1107  138.1224  162.4090 C.3     1  UNL1        0.0776
     33 N         141.1410  139.1242  163.9130 N.ar    1  UNL1       -0.1339
@<TRIPOS>BOND
     1    21    22    1
     2    22    23   ar
     3    23    24   ar
     4    24    25   ar
     5    25    13    1
     6    13    14    1
     7    14    15    1
     8    15    16    1
     9    16    17   am
    10    17    18    2
    11    17    11    1
    12    11    12    2
    13    12     1    1
    14     1     2   ar
    15     2     3   ar
    16     3     4   ar
    17     4     7    1
    18     7     8    1
    19     7     9    1
    20     7    10    1
    21     4     5   ar
    22     5     6   ar
    23     6    27    1
    24    27    28    1
    25    28    29   ar
    26    29    30   ar
    27    30    31   ar
    28    31    32    1
    29    31    33   ar
    30    16    19    1
    31    19    20    1
    32    25    26   ar
    33    26    22   ar
    34    20    13    1
    35     6     1   ar
    36    33    28   ar
@<TRIPOS>MOLECULE
*****
 33 36 0 0 0
SMALL
GASTEIGER

@<TRIPOS>ATOM
      1 C         142.2902  142.3630  166.2618 C.ar    1  UNL1       -0.0019
      2 C         143.0277  142.3048  167.5666 C.ar    1  UNL1       -0.0003
      3 C         142.2955  142.5463  168.8533 C.ar    1  UNL1        0.0038
      4 C         140.8258  142.8459  168.8352 C.ar    1  UNL1        0.0712
      5 C         140.0883  142.9041  167.5303 C.ar    1  UNL1        0.0016
      6 C         140.8206  142.6626  166.2435 C.ar    1  UNL1        0.0040
      7 C         140.0936  143.0873  170.1218 C.3     1  UNL1        0.4186
      8 F         139.3615  143.3288  171.4085 F       1  UNL1       -0.1659
      9 F         140.3676  144.5572  170.0020 F       1  UNL1       -0.1659
     10 F         139.8196  141.6175  170.2417 F       1  UNL1       -0.1659
     11 C         143.4034  140.7257  164.5795 C.2     1  UNL1        0.0579
     12 C         143.0223  142.1216  164.9751 C.2     1  UNL1        0.0044
     13 C         141.9340  138.8531  159.7232 C.3     1  UNL1        0.0826
     14 C         141.2018  139.0946  161.0098 C.3     1  UNL1        0.0309
     15 C         141.9357  139.6383  162.1997 C.3     1  UNL1        0.0942
     16 N         143.4017  139.9405  162.1028 N.am    1  UNL1       -0.2761
     17 C         144.1356  140.4843  163.2928 C.2     1  UNL1        0.2492
     18 O         145.6016  140.7865  163.1959 O.2     1  UNL1       -0.2699
     19 C         144.1339  139.6991  160.8162 C.3     1  UNL1        0.0942
     20 C         143.4000  139.1554  159.6263 C.3     1  UNL1        0.0309
     21 C         140.8365  136.2771  155.2464 C.3     1  UNL1        0.0773
     22 C         140.6956  137.1254  156.4755 C.ar    1  UNL1        0.1809
     23 N         139.4459  137.8201  156.9289 N.ar    1  UNL1       -0.0606
     24 O         139.7577  138.5519  158.2006 O.2     1  UNL1       -0.3374
     25 C         141.2001  138.3094  158.5332 C.ar    1  UNL1        0.2359
     26 N         141.7798  137.4278  157.4671 N.ar    1  UNL1       -0.1949
     27 C         140.0831  142.7208  164.9386 C.3     1  UNL1        0.1776
     28 N         139.4514  141.4810  164.3782 N.ar    1  UNL1       -0.1467
     29 N         138.4597  141.4277  163.2540 N.ar    1  UNL1       -0.0451
     30 N         138.0958  139.9907  163.0246 N.ar    1  UNL1       -0.1123
     31 C         138.8626  139.1559  164.0072 C.ar    1  UNL1        0.1838
     32 C         138.8021  137.6623  164.1313 C.3     1  UNL1        0.0776
     33 N         139.7003  140.0770  164.8437 N.ar    1  UNL1       -0.1339
@<TRIPOS>BOND
     1    21    22    1
     2    22    23   ar
     3    23    24   ar
     4    24    25   ar
     5    25    13    1
     6    13    14    1
     7    14    15    1
     8    15    16    1
     9    16    17   am
    10    17    18    2
    11    17    11    1
    12    11    12    2
    13    12     1    1
    14     1     2   ar
    15     2     3   ar
    16     3     4   ar
    17     4     7    1
    18     7     8    1
    19     7     9    1
    20     7    10    1
    21     4     5   ar
    22     5     6   ar
    23     6    27    1
    24    27    28    1
    25    28    29   ar
    26    29    30   ar
    27    30    31   ar
    28    31    32    1
    29    31    33   ar
    30    16    19    1
    31    19    20    1
    32    25    26   ar
    33    26    22   ar
    34    20    13    1
    35     6     1   ar
    36    33    28   ar
@<TRIPOS>MOLECULE
*****
 33 36 0 0 0
SMALL
GASTEIGER

@<TRIPOS>ATOM
      1 C         141.2067  140.3084  166.6582 C.ar    1  UNL1       -0.0019
      2 C         142.1995  139.7131  167.6120 C.ar    1  UNL1       -0.0003
      3 C         142.7603  140.5451  168.7270 C.ar    1  UNL1        0.0038
      4 C         142.3282  141.9725  168.8882 C.ar    1  UNL1        0.0712
      5 C         141.3354  142.5679  167.9344 C.ar    1  UNL1        0.0016
      6 C         140.7746  141.7358  166.8193 C.ar    1  UNL1        0.0040
      7 C         142.8890  142.8046  170.0032 C.3     1  UNL1        0.4186
      8 F         143.4498  143.6366  171.1182 F       1  UNL1       -0.1659
      9 F         141.6291  143.6181  170.0298 F       1  UNL1       -0.1659
     10 F         144.1489  141.9910  169.9766 F       1  UNL1       -0.1659
     11 C         141.4474  139.2578  164.2942 C.2     1  UNL1        0.0579
     12 C         140.6459  139.4764  165.5432 C.2     1  UNL1        0.0044
     13 C         138.8151  140.4113  159.7127 C.3     1  UNL1        0.0826
     14 C         139.3759  141.2433  160.8277 C.3     1  UNL1        0.0309
     15 C         140.0664  140.5815  161.9832 C.3     1  UNL1        0.0942
     16 N         140.1961  139.0876  162.0237 N.am    1  UNL1       -0.2761
     17 C         140.8866  138.4258  163.1792 C.2     1  UNL1        0.2492
     18 O         141.0163  136.9320  163.2197 O.2     1  UNL1       -0.2699
     19 C         139.6353  138.2556  160.9087 C.3     1  UNL1        0.0942
     20 C         138.9448  138.9174  159.7532 C.3     1  UNL1        0.0309
     21 C         135.6934  141.2443  155.5363 C.3     1  UNL1        0.0773
     22 C         136.6897  141.4560  156.6375 C.ar    1  UNL1        0.1809
     23 N         137.4343  142.7271  156.9205 N.ar    1  UNL1       -0.0606
     24 O         138.3211  142.4904  158.1069 O.2     1  UNL1       -0.3374
     25 C         138.1246  141.0731  158.5572 C.ar    1  UNL1        0.2359
     26 N         137.1163  140.4338  157.6490 N.ar    1  UNL1       -0.1949
     27 C         139.7817  142.3311  165.8655 C.3     1  UNL1        0.1776
     28 N         140.2550  143.1829  164.7250 N.ar    1  UNL1       -0.1467
     29 N         141.5986  143.1025  164.0629 N.ar    1  UNL1       -0.0451
     30 N         141.6418  144.1345  162.9752 N.ar    1  UNL1       -0.1123
     31 C         140.3249  144.8527  162.9651 C.ar    1  UNL1        0.1838
     32 C         139.9338  145.9639  162.0366 C.3     1  UNL1        0.0776
     33 N         139.4679  144.2645  164.0466 N.ar    1  UNL1       -0.1339
@<TRIPOS>BOND
     1    21    22    1
     2    22    23   ar
     3    23    24   ar
     4    24    25   ar
     5    25    13    1
     6    13    14    1
     7    14    15    1
     8    15    16    1
     9    16    17   am
    10    17    18    2
    11    17    11    1
    12    11    12    2
    13    12     1    1
    14     1     2   ar
    15     2     3   ar
    16     3     4   ar
    17     4     7    1
    18     7     8    1
    19     7     9    1
    20     7    10    1
    21     4     5   ar
    22     5     6   ar
    23     6    27    1
    24    27    28    1
    25    28    29   ar
    26    29    30   ar
    27    30    31   ar
    28    31    32    1
    29    31    33   ar
    30    16    19    1
    31    19    20    1
    32    25    26   ar
    33    26    22   ar
    34    20    13    1
    35     6     1   ar
    36    33    28   ar
@<TRIPOS>MOLECULE
*****
 33 36 0 0 0
SMALL
GASTEIGER

@<TRIPOS>ATOM
      1 C         139.9052  142.3124  159.8851 C.ar    1  UNL1       -0.0019
      2 C         139.7013  142.1384  158.4092 C.ar    1  UNL1       -0.0003
      3 C         139.8136  143.3199  157.4921 C.ar    1  UNL1        0.0038
      4 C         140.1299  144.6757  158.0508 C.ar    1  UNL1        0.0712
      5 C         140.3338  144.8497  159.5266 C.ar    1  UNL1        0.0016
      6 C         140.2214  143.6680  160.4438 C.ar    1  UNL1        0.0040
      7 C         140.2422  145.8572  157.1336 C.3     1  UNL1        0.4186
      8 F         140.3545  147.0388  156.2165 F       1  UNL1       -0.1659
      9 F         139.0084  145.4106  156.4070 F       1  UNL1       -0.1659
     10 F         141.4761  146.3039  157.8603 F       1  UNL1       -0.1659
     11 C         138.4582  140.7443  161.3674 C.2     1  UNL1        0.0579
     12 C         139.7929  141.1308  160.8022 C.2     1  UNL1        0.0044
     13 C         139.2064  140.0336  166.6764 C.3     1  UNL1        0.0826
     14 C         139.3187  141.2152  165.7592 C.3     1  UNL1        0.0309
     15 C         139.0319  141.0582  164.2953 C.3     1  UNL1        0.0942
     16 N         138.6327  139.7196  163.7486 N.am    1  UNL1       -0.2761
     17 C         138.3459  139.5627  162.2846 C.2     1  UNL1        0.2492
     18 O         137.9467  138.2241  161.7378 O.2     1  UNL1       -0.2699
     19 C         138.5204  138.5380  164.6657 C.3     1  UNL1        0.0942
     20 C         138.8072  138.6950  166.1296 C.3     1  UNL1        0.0309
     21 C         141.4738  141.4691  171.2238 C.3     1  UNL1        0.0773
     22 C         140.5354  140.8503  170.2305 C.ar    1  UNL1        0.1809
     23 N         139.3336  140.0136  170.5557 N.ar    1  UNL1       -0.0606
     24 O         138.6895  139.6058  169.2639 O.2     1  UNL1       -0.3374
     25 C         139.4932  140.1905  168.1403 C.ar    1  UNL1        0.2359
     26 N         140.6340  140.9596  168.7378 N.ar    1  UNL1       -0.1949
     27 C         140.4253  143.8421  161.9196 C.3     1  UNL1        0.1776
     28 N         141.8134  143.9576  162.4765 N.ar    1  UNL1       -0.1467
     29 N         143.0179  144.4686  161.7430 N.ar    1  UNL1       -0.0451
     30 N         144.1896  144.4092  162.6777 N.ar    1  UNL1       -0.1123
     31 C         143.7091  143.8614  163.9889 C.ar    1  UNL1        0.1838
     32 C         144.5497  143.6329  165.2101 C.3     1  UNL1        0.0776
     33 N         142.2406  143.5823  163.8645 N.ar    1  UNL1       -0.1339
@<TRIPOS>BOND
     1    21    22    1
     2    22    23   ar
     3    23    24   ar
     4    24    25   ar
     5    25    13    1
     6    13    14    1
     7    14    15    1
     8    15    16    1
     9    16    17   am
    10    17    18    2
    11    17    11    1
    12    11    12    2
    13    12     1    1
    14     1     2   ar
    15     2     3   ar
    16     3     4   ar
    17     4     7    1
    18     7     8    1
    19     7     9    1
    20     7    10    1
    21     4     5   ar
    22     5     6   ar
    23     6    27    1
    24    27    28    1
    25    28    29   ar
    26    29    30   ar
    27    30    31   ar
    28    31    32    1
    29    31    33   ar
    30    16    19    1
    31    19    20    1
    32    25    26   ar
    33    26    22   ar
    34    20    13    1
    35     6     1   ar
    36    33    28   ar
@<TRIPOS>MOLECULE
*****
 33 36 0 0 0
SMALL
GASTEIGER

@<TRIPOS>ATOM
      1 C         139.2175  144.0402  156.7772 C.ar    1  UNL1       -0.0019
      2 C         138.2303  144.4312  155.7176 C.ar    1  UNL1       -0.0003
      3 C         138.2135  145.8351  155.1896 C.ar    1  UNL1        0.0038
      4 C         139.1838  146.8480  155.7212 C.ar    1  UNL1        0.0712
      5 C         140.1709  146.4570  156.7808 C.ar    1  UNL1        0.0016
      6 C         140.1877  145.0530  157.3088 C.ar    1  UNL1        0.0040
      7 C         139.1670  148.2519  155.1932 C.3     1  UNL1        0.4186
      8 F         139.1502  149.6557  154.6653 F       1  UNL1       -0.1659
      9 F         138.5976  148.7344  156.4944 F       1  UNL1       -0.1659
     10 F         139.7364  147.7694  153.8921 F       1  UNL1       -0.1659
     11 C         138.2910  142.2356  158.4005 C.2     1  UNL1        0.0579
     12 C         139.2343  142.6363  157.3052 C.2     1  UNL1        0.0044
     13 C         138.5380  140.0980  163.3623 C.3     1  UNL1        0.0826
     14 C         138.5211  141.5019  162.8343 C.3     1  UNL1        0.0309
     15 C         138.4444  141.7464  161.3564 C.3     1  UNL1        0.0942
     16 N         138.3845  140.5871  160.4065 N.am    1  UNL1       -0.2761
     17 C         138.3078  140.8317  158.9285 C.2     1  UNL1        0.2492
     18 O         138.2479  139.6724  157.9786 O.2     1  UNL1       -0.2699
     19 C         138.4013  139.1832  160.9345 C.3     1  UNL1        0.0942
     20 C         138.4781  138.9387  162.4124 C.3     1  UNL1        0.0309
     21 C         140.0701  140.2919  168.4117 C.3     1  UNL1        0.0773
     22 C         139.3189  139.9425  167.1612 C.ar    1  UNL1        0.1809
     23 N         138.1465  139.0115  167.0680 N.ar    1  UNL1       -0.0606
     24 O         137.7113  138.9564  165.6336 O.2     1  UNL1       -0.3374
     25 C         138.6147  139.8534  164.8403 C.ar    1  UNL1        0.2359
     26 N         139.6082  140.4629  165.7844 N.ar    1  UNL1       -0.1949
     27 C         141.1749  144.6620  158.3684 C.3     1  UNL1        0.1776
     28 N         140.9278  145.0385  159.7992 N.ar    1  UNL1       -0.1467
     29 N         139.7357  145.7843  160.3215 N.ar    1  UNL1       -0.0451
     30 N         139.9005  145.9420  161.8040 N.ar    1  UNL1       -0.1123
     31 C         141.1945  145.2936  162.1980 C.ar    1  UNL1        0.1838
     32 C         141.7552  145.2171  163.5872 C.3     1  UNL1        0.0776
     33 N         141.8294  144.7352  160.9590 N.ar    1  UNL1       -0.1339
@<TRIPOS>BOND
     1    21    22    1
     2    22    23   ar
     3    23    24   ar
     4    24    25   ar
     5    25    13    1
     6    13    14    1
     7    14    15    1
     8    15    16    1
     9    16    17   am
    10    17    18    2
    11    17    11    1
    12    11    12    2
    13    12     1    1
    14     1     2   ar
    15     2     3   ar
    16     3     4   ar
    17     4     7    1
    18     7     8    1
    19     7     9    1
    20     7    10    1
    21     4     5   ar
    22     5     6   ar
    23     6    27    1
    24    27    28    1
    25    28    29   ar
    26    29    30   ar
    27    30    31   ar
    28    31    32    1
    29    31    33   ar
    30    16    19    1
    31    19    20    1
    32    25    26   ar
    33    26    22   ar
    34    20    13    1
    35     6     1   ar
    36    33    28   ar
@<TRIPOS>MOLECULE
*****
 33 36 0 0 0
SMALL
GASTEIGER

@<TRIPOS>ATOM
      1 C         139.8190  140.8027  165.9745 C.ar    1  UNL1       -0.0019
      2 C         139.4689  139.7949  167.0289 C.ar    1  UNL1       -0.0003
      3 C         139.6334  140.1391  168.4795 C.ar    1  UNL1        0.0038
      4 C         140.1480  141.4913  168.8758 C.ar    1  UNL1        0.0712
      5 C         140.4981  142.4991  167.8214 C.ar    1  UNL1        0.0016
      6 C         140.3336  142.1548  166.3707 C.ar    1  UNL1        0.0040
      7 C         140.3125  141.8355  170.3264 C.3     1  UNL1        0.4186
      8 F         140.4770  142.1797  171.7771 F       1  UNL1       -0.1659
      9 F         139.9650  143.2636  170.0270 F       1  UNL1       -0.1659
     10 F         140.6600  140.4074  170.6259 F       1  UNL1       -0.1659
     11 C         138.3161  140.6114  163.8638 C.2     1  UNL1        0.0579
     12 C         139.6544  140.4585  164.5238 C.2     1  UNL1        0.0044
     13 C         139.3920  143.2142  159.2467 C.3     1  UNL1        0.0826
     14 C         139.5565  143.5584  160.6973 C.3     1  UNL1        0.0309
     15 C         139.1430  142.5761  161.7528 C.3     1  UNL1        0.0942
     16 N         138.5651  141.2495  161.3576 N.am    1  UNL1       -0.2761
     17 C         138.1516  140.2672  162.4132 C.2     1  UNL1        0.2492
     18 O         137.5737  138.9406  162.0180 O.2     1  UNL1       -0.2699
     19 C         138.4006  140.9053  159.9070 C.3     1  UNL1        0.0942
     20 C         138.8140  141.8876  158.8515 C.3     1  UNL1        0.0309
     21 C         140.2295  145.4902  154.5563 C.3     1  UNL1        0.0773
     22 C         140.1904  145.2427  156.0353 C.ar    1  UNL1        0.1809
     23 N         140.6929  146.1738  157.0986 N.ar    1  UNL1       -0.0606
     24 O         140.4550  145.5272  158.4310 O.2     1  UNL1       -0.3374
     25 C         139.8054  144.1965  158.1911 C.ar    1  UNL1        0.2359
     26 N         139.6419  144.0207  156.7105 N.ar    1  UNL1       -0.1949
     27 C         140.6836  143.1626  165.3163 C.3     1  UNL1        0.1776
     28 N         142.0737  143.2082  164.7545 N.ar    1  UNL1       -0.1467
     29 N         142.7141  144.3852  164.0802 N.ar    1  UNL1       -0.0451
     30 N         144.1036  143.9893  163.6772 N.ar    1  UNL1       -0.1123
     31 C         144.3220  142.5674  164.1024 C.ar    1  UNL1        0.1838
     32 C         145.5750  141.7686  163.8978 C.3     1  UNL1        0.0776
     33 N         143.0675  142.0847  164.7682 N.ar    1  UNL1       -0.1339
@<TRIPOS>BOND
     1    21    22    1
     2    22    23   ar
     3    23    24   ar
     4    24    25   ar
     5    25    13    1
     6    13    14    1
     7    14    15    1
     8    15    16    1
     9    16    17   am
    10    17    18    2
    11    17    11    1
    12    11    12    2
    13    12     1    1
    14     1     2   ar
    15     2     3   ar
    16     3     4   ar
    17     4     7    1
    18     7     8    1
    19     7     9    1
    20     7    10    1
    21     4     5   ar
    22     5     6   ar
    23     6    27    1
    24    27    28    1
    25    28    29   ar
    26    29    30   ar
    27    30    31   ar
    28    31    32    1
    29    31    33   ar
    30    16    19    1
    31    19    20    1
    32    25    26   ar
    33    26    22   ar
    34    20    13    1
    35     6     1   ar
    36    33    28   ar
