@<TRIPOS>MOLECULE
*****
 35 39 0 0 0
SMALL
GASTEIGER

@<TRIPOS>ATOM
      1 C         144.2104  141.2874  158.1164 C.3     1  UNL1        0.0666
      2 C         144.0495  142.4266  159.0788 C.3     1  UNL1        0.0294
      3 C         144.8132  142.4314  160.3699 C.3     1  UNL1        0.0730
      4 C         139.5592  140.1641  169.9887 C.3     1  UNL1        0.0950
      5 C         140.2634  140.4680  168.6996 C.ar    1  UNL1        0.2062
      6 N         141.5642  139.8756  168.2445 N.ar    1  UNL1       -0.2121
      7 C         141.8950  140.4591  166.9029 C.ar    1  UNL1        0.1182
      8 C         143.0530  140.2458  165.9736 C.ar    1  UNL1        0.0178
      9 C         143.1147  140.9855  164.6700 C.ar    1  UNL1       -0.0230
     10 C         142.0185  141.9384  164.2959 C.ar    1  UNL1       -0.0216
     11 C         140.8605  142.1518  165.2252 C.ar    1  UNL1        0.0346
     12 C         140.7988  141.4121  166.5287 C.ar    1  UNL1        0.1640
     13 O         139.7904  141.4176  167.6391 O.2     1  UNL1       -0.4384
     14 C         141.8854  142.7702  163.0547 C.3     1  UNL1        0.0434
     15 C         142.8159  142.8543  161.8811 C.3     1  UNL1        0.0768
     16 N         144.1091  142.1276  161.6590 N.3     1  UNL1       -0.2720
     17 C         144.7913  141.1371  162.5554 C.3     1  UNL1        0.0768
     18 C         144.3487  140.6288  163.8955 C.3     1  UNL1        0.0434
     19 S         143.2959  140.1013  158.1986 S.3     1  UNL1       -0.0756
     20 C         143.0373  139.4439  159.5218 C.ar    1  UNL1        0.1932
     21 N         143.9479  138.4769  160.2188 N.ar    1  UNL1       -0.1221
     22 N         143.2962  138.0735  161.5082 N.ar    1  UNL1       -0.1282
     23 C         141.9828  138.7911  161.6080 C.ar    1  UNL1        0.1668
     24 N         141.8228  139.6381  160.3804 N.ar    1  UNL1       -0.2884
     25 C         140.6536  140.5238  160.0665 C.3     1  UNL1        0.1340
     26 C         141.0016  138.6811  162.7373 C.ar    1  UNL1        0.0359
     27 C         139.7335  139.4818  162.7097 C.ar    1  UNL1        0.0030
     28 C         138.7523  139.3718  163.8389 C.ar    1  UNL1        0.0039
     29 C         139.0392  138.4611  164.9958 C.ar    1  UNL1        0.0714
     30 C         140.3073  137.6604  165.0233 C.ar    1  UNL1        0.0039
     31 C         141.2885  137.7704  163.8941 C.ar    1  UNL1        0.0030
     32 C         138.0580  138.3511  166.1250 C.3     1  UNL1        0.4186
     33 F         137.0768  138.2411  167.2542 F       1  UNL1       -0.1659
     34 F         138.2842  136.8692  166.1772 F       1  UNL1       -0.1659
     35 F         137.8318  139.8330  166.0728 F       1  UNL1       -0.1659
@<TRIPOS>BOND
     1     4     5    1
     2     5     6   ar
     3     6     7   ar
     4     7     8   ar
     5     8     9   ar
     6     9    10   ar
     7    10    11   ar
     8    11    12   ar
     9    12    13   ar
    10    10    14    1
    11    14    15    1
    12    15    16    1
    13    16     3    1
    14     3     2    1
    15     2     1    1
    16     1    19    1
    17    19    20    1
    18    20    21   ar
    19    21    22   ar
    20    22    23   ar
    21    23    26    1
    22    26    27   ar
    23    27    28   ar
    24    28    29   ar
    25    29    32    1
    26    32    33    1
    27    32    34    1
    28    32    35    1
    29    29    30   ar
    30    30    31   ar
    31    23    24   ar
    32    24    25    1
    33    16    17    1
    34    17    18    1
    35    13     5   ar
    36    24    20   ar
    37    12     7   ar
    38    31    26   ar
    39    18     9    1
@<TRIPOS>MOLECULE
*****
 35 39 0 0 0
SMALL
GASTEIGER

@<TRIPOS>ATOM
      1 C         141.4863  145.2080  159.3928 C.3     1  UNL1        0.0666
      2 C         141.9927  143.8481  159.0130 C.3     1  UNL1        0.0294
      3 C         143.2058  143.2832  159.6908 C.3     1  UNL1        0.0730
      4 C         142.4638  139.3864  170.1565 C.3     1  UNL1        0.0950
      5 C         142.5633  139.9087  168.7539 C.ar    1  UNL1        0.2062
      6 N         142.8969  141.3168  168.3589 N.ar    1  UNL1       -0.2121
      7 C         142.8863  141.3928  166.8609 C.ar    1  UNL1        0.1182
      8 C         143.1426  142.5257  165.9117 C.ar    1  UNL1        0.0178
      9 C         143.0586  142.2974  164.4314 C.ar    1  UNL1       -0.0230
     10 C         142.7184  140.9364  163.9006 C.ar    1  UNL1       -0.0216
     11 C         142.4622  139.8036  164.8498 C.ar    1  UNL1        0.0346
     12 C         142.5462  140.0318  166.3300 C.ar    1  UNL1        0.1640
     13 O         142.3465  139.1145  167.5000 O.2     1  UNL1       -0.4384
     14 C         142.5841  140.4961  162.4730 C.3     1  UNL1        0.0434
     15 C         142.7568  141.3082  161.2236 C.3     1  UNL1        0.0768
     16 N         143.1063  142.7609  161.0934 N.3     1  UNL1       -0.2720
     17 C         143.3697  143.7607  162.1803 C.3     1  UNL1        0.0768
     18 C         143.3484  143.5544  163.6659 C.3     1  UNL1        0.0434
     19 S         140.1853  145.3459  160.1265 S.3     1  UNL1       -0.0756
     20 C         140.0171  144.7195  161.4791 C.ar    1  UNL1        0.1932
     21 N         140.2224  145.4025  162.7986 N.ar    1  UNL1       -0.1221
     22 N         139.9462  144.4054  163.8847 N.ar    1  UNL1       -0.1282
     23 C         139.5701  143.1061  163.2362 C.ar    1  UNL1        0.1668
     24 N         139.6139  143.3003  161.7494 N.ar    1  UNL1       -0.2884
     25 C         139.3083  142.2581  160.7148 C.3     1  UNL1        0.1340
     26 C         139.2130  141.8357  163.9493 C.ar    1  UNL1        0.0359
     27 C         139.3302  141.7554  165.4426 C.ar    1  UNL1        0.0030
     28 C         138.9730  140.4850  166.1557 C.ar    1  UNL1        0.0039
     29 C         138.4987  139.2949  165.3756 C.ar    1  UNL1        0.0714
     30 C         138.3815  139.3752  163.8824 C.ar    1  UNL1        0.0039
     31 C         138.7386  140.6456  163.1693 C.ar    1  UNL1        0.0030
     32 C         138.1415  138.0245  166.0887 C.3     1  UNL1        0.4186
     33 F         137.7844  136.7541  166.8018 F       1  UNL1       -0.1659
     34 F         137.3332  138.8082  167.0799 F       1  UNL1       -0.1659
     35 F         138.9499  137.2409  165.0975 F       1  UNL1       -0.1659
@<TRIPOS>BOND
     1     4     5    1
     2     5     6   ar
     3     6     7   ar
     4     7     8   ar
     5     8     9   ar
     6     9    10   ar
     7    10    11   ar
     8    11    12   ar
     9    12    13   ar
    10    10    14    1
    11    14    15    1
    12    15    16    1
    13    16     3    1
    14     3     2    1
    15     2     1    1
    16     1    19    1
    17    19    20    1
    18    20    21   ar
    19    21    22   ar
    20    22    23   ar
    21    23    26    1
    22    26    27   ar
    23    27    28   ar
    24    28    29   ar
    25    29    32    1
    26    32    33    1
    27    32    34    1
    28    32    35    1
    29    29    30   ar
    30    30    31   ar
    31    23    24   ar
    32    24    25    1
    33    16    17    1
    34    17    18    1
    35    13     5   ar
    36    24    20   ar
    37    12     7   ar
    38    31    26   ar
    39    18     9    1
@<TRIPOS>MOLECULE
*****
 35 39 0 0 0
SMALL
GASTEIGER

@<TRIPOS>ATOM
      1 C         140.1118  144.4866  159.1278 C.3     1  UNL1        0.0666
      2 C         140.4961  145.4656  160.1973 C.3     1  UNL1        0.0294
      3 C         139.7035  145.5369  161.4689 C.3     1  UNL1        0.0730
      4 C         142.4121  138.9821  170.1272 C.3     1  UNL1        0.0950
      5 C         142.0491  139.8606  168.9668 C.ar    1  UNL1        0.2062
      6 N         140.6812  140.0131  168.3703 N.ar    1  UNL1       -0.2121
      7 C         140.7770  140.9875  167.2341 C.ar    1  UNL1        0.1182
      8 C         139.7491  141.5234  166.2821 C.ar    1  UNL1        0.0178
      9 C         140.1483  142.5091  165.2242 C.ar    1  UNL1       -0.0230
     10 C         141.5752  142.9589  165.1184 C.ar    1  UNL1       -0.0216
     11 C         142.6031  142.4231  166.0703 C.ar    1  UNL1        0.0346
     12 C         142.2040  141.4374  167.1282 C.ar    1  UNL1        0.1640
     13 O         142.9902  140.7409  168.1991 O.2     1  UNL1       -0.4384
     14 C         142.1812  143.9263  164.1451 C.3     1  UNL1        0.0434
     15 C         141.5097  144.6826  163.0373 C.3     1  UNL1        0.0768
     16 N         140.0666  144.6585  162.6293 N.3     1  UNL1       -0.2720
     17 C         138.9383  143.8720  163.2281 C.3     1  UNL1        0.0768
     18 C         138.9747  142.9155  164.3830 C.3     1  UNL1        0.0434
     19 S         141.1015  143.4620  158.6582 S.3     1  UNL1       -0.0756
     20 C         142.1448  142.9397  159.6009 C.ar    1  UNL1        0.1932
     21 N         143.6030  143.2908  159.5844 N.ar    1  UNL1       -0.1221
     22 N         144.2726  142.5428  160.6989 N.ar    1  UNL1       -0.1282
     23 C         143.2281  141.7294  161.4042 C.ar    1  UNL1        0.1668
     24 N         141.9130  141.9747  160.7256 N.ar    1  UNL1       -0.2884
     25 C         140.5973  141.3625  161.1052 C.3     1  UNL1        0.1340
     26 C         143.4583  140.8288  162.5815 C.ar    1  UNL1        0.0359
     27 C         142.3470  139.9578  163.0881 C.ar    1  UNL1        0.0030
     28 C         142.5772  139.0572  164.2653 C.ar    1  UNL1        0.0039
     29 C         143.9185  139.0275  164.9360 C.ar    1  UNL1        0.0714
     30 C         145.0298  139.8984  164.4294 C.ar    1  UNL1        0.0039
     31 C         144.7996  140.7990  163.2521 C.ar    1  UNL1        0.0030
     32 C         144.1487  138.1269  166.1132 C.3     1  UNL1        0.4186
     33 F         144.3789  137.2262  167.2905 F       1  UNL1       -0.1659
     34 F         145.6295  138.2146  165.8909 F       1  UNL1       -0.1659
     35 F         142.6679  138.0391  166.3356 F       1  UNL1       -0.1659
@<TRIPOS>BOND
     1     4     5    1
     2     5     6   ar
     3     6     7   ar
     4     7     8   ar
     5     8     9   ar
     6     9    10   ar
     7    10    11   ar
     8    11    12   ar
     9    12    13   ar
    10    10    14    1
    11    14    15    1
    12    15    16    1
    13    16     3    1
    14     3     2    1
    15     2     1    1
    16     1    19    1
    17    19    20    1
    18    20    21   ar
    19    21    22   ar
    20    22    23   ar
    21    23    26    1
    22    26    27   ar
    23    27    28   ar
    24    28    29   ar
    25    29    32    1
    26    32    33    1
    27    32    34    1
    28    32    35    1
    29    29    30   ar
    30    30    31   ar
    31    23    24   ar
    32    24    25    1
    33    16    17    1
    34    17    18    1
    35    13     5   ar
    36    24    20   ar
    37    12     7   ar
    38    31    26   ar
    39    18     9    1
@<TRIPOS>MOLECULE
*****
 35 39 0 0 0
SMALL
GASTEIGER

@<TRIPOS>ATOM
      1 C         142.4052  140.5518  156.9778 C.3     1  UNL1        0.0666
      2 C         143.4118  141.1846  157.8924 C.3     1  UNL1        0.0294
      3 C         142.9652  142.1671  158.9342 C.3     1  UNL1        0.0730
      4 C         142.2891  139.0333  169.6576 C.3     1  UNL1        0.0950
      5 C         142.3797  139.4533  168.2204 C.ar    1  UNL1        0.2062
      6 N         141.4250  140.3633  167.5059 N.ar    1  UNL1       -0.2121
      7 C         141.8962  140.5094  166.0894 C.ar    1  UNL1        0.1182
      8 C         141.3517  141.2830  164.9252 C.ar    1  UNL1        0.0178
      9 C         142.0532  141.2369  163.6001 C.ar    1  UNL1       -0.0230
     10 C         143.2990  140.4172  163.4392 C.ar    1  UNL1       -0.0216
     11 C         143.8435  139.6437  164.6032 C.ar    1  UNL1        0.0346
     12 C         143.1421  139.6898  165.9284 C.ar    1  UNL1        0.1640
     13 O         143.4409  139.0371  167.2454 O.2     1  UNL1       -0.4384
     14 C         144.1467  140.2345  162.2152 C.3     1  UNL1        0.0434
     15 C         143.9577  140.8264  160.8498 C.3     1  UNL1        0.0768
     16 N         142.8746  141.7471  160.3714 N.3     1  UNL1       -0.2720
     17 C         141.7128  142.3034  161.1400 C.3     1  UNL1        0.0768
     18 C         141.3472  142.0763  162.5769 C.3     1  UNL1        0.0434
     19 S         141.8747  139.1817  157.2796 S.3     1  UNL1       -0.0756
     20 C         141.8543  138.6798  158.6930 C.ar    1  UNL1        0.1932
     21 N         142.8663  137.7667  159.3190 N.ar    1  UNL1       -0.1221
     22 N         142.4559  137.5255  160.7415 N.ar    1  UNL1       -0.1282
     23 C         141.1902  138.2897  160.9946 C.ar    1  UNL1        0.1668
     24 N         140.8184  139.0031  159.7285 N.ar    1  UNL1       -0.2884
     25 C         139.6209  139.8849  159.5325 C.3     1  UNL1        0.1340
     26 C         140.4298  138.3328  162.2868 C.ar    1  UNL1        0.0359
     27 C         140.8870  137.5090  163.4540 C.ar    1  UNL1        0.0030
     28 C         140.1266  137.5522  164.7462 C.ar    1  UNL1        0.0039
     29 C         138.9090  138.4191  164.8714 C.ar    1  UNL1        0.0714
     30 C         138.4518  139.2430  163.7042 C.ar    1  UNL1        0.0039
     31 C         139.2122  139.1998  162.4120 C.ar    1  UNL1        0.0030
     32 C         138.1486  138.4623  166.1636 C.3     1  UNL1        0.4186
     33 F         137.3882  138.5055  167.4559 F       1  UNL1       -0.1659
     34 F         138.1758  139.9617  166.1296 F       1  UNL1       -0.1659
     35 F         138.1214  136.9630  166.1977 F       1  UNL1       -0.1659
@<TRIPOS>BOND
     1     4     5    1
     2     5     6   ar
     3     6     7   ar
     4     7     8   ar
     5     8     9   ar
     6     9    10   ar
     7    10    11   ar
     8    11    12   ar
     9    12    13   ar
    10    10    14    1
    11    14    15    1
    12    15    16    1
    13    16     3    1
    14     3     2    1
    15     2     1    1
    16     1    19    1
    17    19    20    1
    18    20    21   ar
    19    21    22   ar
    20    22    23   ar
    21    23    26    1
    22    26    27   ar
    23    27    28   ar
    24    28    29   ar
    25    29    32    1
    26    32    33    1
    27    32    34    1
    28    32    35    1
    29    29    30   ar
    30    30    31   ar
    31    23    24   ar
    32    24    25    1
    33    16    17    1
    34    17    18    1
    35    13     5   ar
    36    24    20   ar
    37    12     7   ar
    38    31    26   ar
    39    18     9    1
@<TRIPOS>MOLECULE
*****
 35 39 0 0 0
SMALL
GASTEIGER

@<TRIPOS>ATOM
      1 C         143.8010  141.8474  158.5076 C.3     1  UNL1        0.0666
      2 C         144.0897  142.6008  159.7721 C.3     1  UNL1        0.0294
      3 C         142.9972  143.3717  160.4520 C.3     1  UNL1        0.0730
      4 C         140.9214  141.7295  171.3269 C.3     1  UNL1        0.0950
      5 C         141.1996  141.9496  169.8694 C.ar    1  UNL1        0.2062
      6 N         140.2074  142.4072  168.8416 N.ar    1  UNL1       -0.2121
      7 C         140.9135  142.4911  167.5209 C.ar    1  UNL1        0.1182
      8 C         140.4401  142.8846  166.1530 C.ar    1  UNL1        0.0178
      9 C         141.3954  142.8723  164.9965 C.ar    1  UNL1       -0.0230
     10 C         142.8238  142.4666  165.2079 C.ar    1  UNL1       -0.0216
     11 C         143.2972  142.0731  166.5758 C.ar    1  UNL1        0.0346
     12 C         142.3420  142.0854  167.7323 C.ar    1  UNL1        0.1640
     13 O         142.5188  141.7507  169.1837 O.2     1  UNL1       -0.4384
     14 C         143.9320  142.3857  164.2002 C.3     1  UNL1        0.0434
     15 C         143.8853  142.6906  162.7322 C.3     1  UNL1        0.0768
     16 N         142.7190  143.1516  161.9095 N.3     1  UNL1       -0.2720
     17 C         141.3112  143.4217  162.3513 C.3     1  UNL1        0.0768
     18 C         140.7221  143.2974  163.7252 C.3     1  UNL1        0.0434
     19 S         143.5127  140.3764  158.5602 S.3     1  UNL1       -0.0756
     20 C         143.2536  139.7096  159.8786 C.ar    1  UNL1        0.1932
     21 N         144.2234  138.8555  160.6403 N.ar    1  UNL1       -0.1221
     22 N         143.5485  138.3978  161.8992 N.ar    1  UNL1       -0.1282
     23 C         142.1616  138.9690  161.9156 C.ar    1  UNL1        0.1668
     24 N         141.9793  139.7797  160.6668 N.ar    1  UNL1       -0.2884
     25 C         140.7403  140.5290  160.2750 C.3     1  UNL1        0.1340
     26 C         141.1368  138.7652  162.9918 C.ar    1  UNL1        0.0359
     27 C         141.3933  139.2770  164.3783 C.ar    1  UNL1        0.0030
     28 C         140.3686  139.0732  165.4546 C.ar    1  UNL1        0.0039
     29 C         139.0872  138.3577  165.1444 C.ar    1  UNL1        0.0714
     30 C         138.8307  137.8460  163.7580 C.ar    1  UNL1        0.0039
     31 C         139.8555  138.0497  162.6817 C.ar    1  UNL1        0.0030
     32 C         138.0625  138.1540  166.2207 C.3     1  UNL1        0.4186
     33 F         137.0377  137.9502  167.2969 F       1  UNL1       -0.1659
     34 F         138.3188  136.6765  166.1850 F       1  UNL1       -0.1659
     35 F         137.8062  139.6315  166.2564 F       1  UNL1       -0.1659
@<TRIPOS>BOND
     1     4     5    1
     2     5     6   ar
     3     6     7   ar
     4     7     8   ar
     5     8     9   ar
     6     9    10   ar
     7    10    11   ar
     8    11    12   ar
     9    12    13   ar
    10    10    14    1
    11    14    15    1
    12    15    16    1
    13    16     3    1
    14     3     2    1
    15     2     1    1
    16     1    19    1
    17    19    20    1
    18    20    21   ar
    19    21    22   ar
    20    22    23   ar
    21    23    26    1
    22    26    27   ar
    23    27    28   ar
    24    28    29   ar
    25    29    32    1
    26    32    33    1
    27    32    34    1
    28    32    35    1
    29    29    30   ar
    30    30    31   ar
    31    23    24   ar
    32    24    25    1
    33    16    17    1
    34    17    18    1
    35    13     5   ar
    36    24    20   ar
    37    12     7   ar
    38    31    26   ar
    39    18     9    1
@<TRIPOS>MOLECULE
*****
 35 39 0 0 0
SMALL
GASTEIGER

@<TRIPOS>ATOM
      1 C         140.4718  144.7731  158.4744 C.3     1  UNL1        0.0666
      2 C         141.0814  145.4863  159.6448 C.3     1  UNL1        0.0294
      3 C         140.2678  145.7303  160.8812 C.3     1  UNL1        0.0730
      4 C         141.8771  139.4108  169.9775 C.3     1  UNL1        0.0950
      5 C         141.6614  140.2578  168.7584 C.ar    1  UNL1        0.2062
      6 N         142.7272  140.7370  167.8179 N.ar    1  UNL1       -0.2121
      7 C         142.0665  141.5496  166.7440 C.ar    1  UNL1        0.1182
      8 C         142.6168  142.2716  165.5498 C.ar    1  UNL1        0.0178
      9 C         141.6929  143.0165  164.6325 C.ar    1  UNL1       -0.0230
     10 C         140.2190  143.0395  164.9093 C.ar    1  UNL1       -0.0216
     11 C         139.6686  142.3176  166.1034 C.ar    1  UNL1        0.0346
     12 C         140.5924  141.5726  167.0208 C.ar    1  UNL1        0.1640
     13 O         140.3421  140.7742  168.2657 O.2     1  UNL1       -0.4384
     14 C         139.1312  143.7160  164.1287 C.3     1  UNL1        0.0434
     15 C         139.2490  144.5367  162.8785 C.3     1  UNL1        0.0768
     16 N         140.4834  144.8833  162.1003 N.3     1  UNL1       -0.2720
     17 C         141.9051  144.4952  162.3799 C.3     1  UNL1        0.0768
     18 C         142.4434  143.6644  163.5068 C.3     1  UNL1        0.0434
     19 S         140.7609  143.3187  158.2489 S.3     1  UNL1       -0.0756
     20 C         141.0403  142.4196  159.4167 C.ar    1  UNL1        0.1932
     21 N         142.3828  141.8802  159.8126 N.ar    1  UNL1       -0.1221
     22 N         142.1985  141.0294  161.0342 N.ar    1  UNL1       -0.1282
     23 C         140.7422  141.0430  161.3931 C.ar    1  UNL1        0.1668
     24 N         140.0263  141.9022  160.3934 N.ar    1  UNL1       -0.2884
     25 C         138.5549  142.1930  160.3740 C.3     1  UNL1        0.1340
     26 C         140.1122  140.3237  162.5489 C.ar    1  UNL1        0.0359
     27 C         138.6285  140.3946  162.7577 C.ar    1  UNL1        0.0030
     28 C         137.9986  139.6753  163.9134 C.ar    1  UNL1        0.0039
     29 C         138.8522  138.8850  164.8604 C.ar    1  UNL1        0.0714
     30 C         140.3359  138.8141  164.6515 C.ar    1  UNL1        0.0039
     31 C         140.9659  139.5334  163.4958 C.ar    1  UNL1        0.0030
     32 C         138.2223  138.1657  166.0161 C.3     1  UNL1        0.4186
     33 F         137.5923  137.4464  167.1718 F       1  UNL1       -0.1659
     34 F         138.6830  136.8547  165.4513 F       1  UNL1       -0.1659
     35 F         137.7615  139.4767  166.5809 F       1  UNL1       -0.1659
@<TRIPOS>BOND
     1     4     5    1
     2     5     6   ar
     3     6     7   ar
     4     7     8   ar
     5     8     9   ar
     6     9    10   ar
     7    10    11   ar
     8    11    12   ar
     9    12    13   ar
    10    10    14    1
    11    14    15    1
    12    15    16    1
    13    16     3    1
    14     3     2    1
    15     2     1    1
    16     1    19    1
    17    19    20    1
    18    20    21   ar
    19    21    22   ar
    20    22    23   ar
    21    23    26    1
    22    26    27   ar
    23    27    28   ar
    24    28    29   ar
    25    29    32    1
    26    32    33    1
    27    32    34    1
    28    32    35    1
    29    29    30   ar
    30    30    31   ar
    31    23    24   ar
    32    24    25    1
    33    16    17    1
    34    17    18    1
    35    13     5   ar
    36    24    20   ar
    37    12     7   ar
    38    31    26   ar
    39    18     9    1
@<TRIPOS>MOLECULE
*****
 35 39 0 0 0
SMALL
GASTEIGER

@<TRIPOS>ATOM
      1 C         140.5200  140.0145  170.7536 C.3     1  UNL1        0.0666
      2 C         141.7357  139.5043  170.0382 C.3     1  UNL1        0.0294
      3 C         142.8141  140.4584  169.6175 C.3     1  UNL1        0.0730
      4 C         144.4318  142.6407  158.7598 C.3     1  UNL1        0.0950
      5 C         144.2150  142.3483  160.2150 C.ar    1  UNL1        0.2062
      6 N         144.3242  143.3359  161.3387 N.ar    1  UNL1       -0.2121
      7 C         144.0276  142.6148  162.6200 C.ar    1  UNL1        0.1182
      8 C         143.9861  143.0783  164.0461 C.ar    1  UNL1        0.0178
      9 C         143.6520  142.1082  165.1405 C.ar    1  UNL1       -0.0230
     10 C         143.3596  140.6750  164.8088 C.ar    1  UNL1       -0.0216
     11 C         143.4011  140.2115  163.3828 C.ar    1  UNL1        0.0346
     12 C         143.7351  141.1815  162.2884 C.ar    1  UNL1        0.1640
     13 O         143.8510  141.0168  160.8020 O.2     1  UNL1       -0.4384
     14 C         143.0077  139.5526  165.7397 C.3     1  UNL1        0.0434
     15 C         142.8614  139.5864  167.2322 C.3     1  UNL1        0.0768
     16 N         143.0309  140.7509  168.1623 N.3     1  UNL1       -0.2720
     17 C         143.3884  142.1692  167.8298 C.3     1  UNL1        0.0768
     18 C         143.6649  142.7733  166.4849 C.3     1  UNL1        0.0434
     19 S         139.2672  140.3124  169.9845 S.3     1  UNL1       -0.0756
     20 C         139.3061  140.3860  168.4868 C.ar    1  UNL1        0.1932
     21 N         138.9255  139.2867  167.5398 N.ar    1  UNL1       -0.1221
     22 N         139.1166  139.7930  166.1409 N.ar    1  UNL1       -0.1282
     23 C         139.6155  141.2053  166.2232 C.ar    1  UNL1        0.1668
     24 N         139.7326  141.5717  167.6731 N.ar    1  UNL1       -0.2884
     25 C         140.1950  142.8921  168.2142 C.3     1  UNL1        0.1340
     26 C         139.9402  142.0949  165.0600 C.ar    1  UNL1        0.0359
     27 C         140.2328  143.5485  165.2862 C.ar    1  UNL1        0.0030
     28 C         140.5576  144.4381  164.1230 C.ar    1  UNL1        0.0039
     29 C         140.5897  143.8741  162.7335 C.ar    1  UNL1        0.0714
     30 C         140.2971  142.4205  162.5072 C.ar    1  UNL1        0.0039
     31 C         139.9724  141.5309  163.6705 C.ar    1  UNL1        0.0030
     32 C         140.9144  144.7637  161.5702 C.3     1  UNL1        0.4186
     33 F         141.2392  145.6533  160.4070 F       1  UNL1       -0.1659
     34 F         141.1065  143.5566  160.7007 F       1  UNL1       -0.1659
     35 F         140.7224  145.9708  162.4397 F       1  UNL1       -0.1659
@<TRIPOS>BOND
     1     4     5    1
     2     5     6   ar
     3     6     7   ar
     4     7     8   ar
     5     8     9   ar
     6     9    10   ar
     7    10    11   ar
     8    11    12   ar
     9    12    13   ar
    10    10    14    1
    11    14    15    1
    12    15    16    1
    13    16     3    1
    14     3     2    1
    15     2     1    1
    16     1    19    1
    17    19    20    1
    18    20    21   ar
    19    21    22   ar
    20    22    23   ar
    21    23    26    1
    22    26    27   ar
    23    27    28   ar
    24    28    29   ar
    25    29    32    1
    26    32    33    1
    27    32    34    1
    28    32    35    1
    29    29    30   ar
    30    30    31   ar
    31    23    24   ar
    32    24    25    1
    33    16    17    1
    34    17    18    1
    35    13     5   ar
    36    24    20   ar
    37    12     7   ar
    38    31    26   ar
    39    18     9    1
@<TRIPOS>MOLECULE
*****
 35 39 0 0 0
SMALL
GASTEIGER

@<TRIPOS>ATOM
      1 C         141.2827  142.1980  171.0682 C.3     1  UNL1        0.0666
      2 C         142.3707  141.2995  170.5593 C.3     1  UNL1        0.0294
      3 C         143.3201  141.7925  169.5077 C.3     1  UNL1        0.0730
      4 C         142.4875  138.0191  159.0036 C.3     1  UNL1        0.0950
      5 C         142.5991  138.5248  160.4114 C.ar    1  UNL1        0.2062
      6 N         142.3937  137.7158  161.6578 N.ar    1  UNL1       -0.2121
      7 C         142.6033  138.6193  162.8366 C.ar    1  UNL1        0.1182
      8 C         142.5325  138.3736  164.3147 C.ar    1  UNL1        0.0178
      9 C         142.7966  139.4953  165.2749 C.ar    1  UNL1       -0.0230
     10 C         143.1315  140.8626  164.7572 C.ar    1  UNL1       -0.0216
     11 C         143.2024  141.1084  163.2792 C.ar    1  UNL1        0.0346
     12 C         142.9383  139.9867  162.3188 C.ar    1  UNL1        0.1640
     13 O         142.9357  139.9283  160.8200 O.2     1  UNL1       -0.4384
     14 C         143.4276  142.1106  165.5350 C.3     1  UNL1        0.0434
     15 C         143.4619  142.2993  167.0227 C.3     1  UNL1        0.0768
     16 N         143.2085  141.2868  168.0999 N.3     1  UNL1       -0.2720
     17 C         142.8583  139.8354  167.9556 C.3     1  UNL1        0.0768
     18 C         142.6750  139.0381  166.6984 C.3     1  UNL1        0.0434
     19 S         140.0026  142.3358  170.2987 S.3     1  UNL1       -0.0756
     20 C         139.6256  141.3025  169.2788 C.ar    1  UNL1        0.1932
     21 N         139.0777  139.9365  169.5686 N.ar    1  UNL1       -0.1221
     22 N         138.8438  139.2434  168.2591 N.ar    1  UNL1       -0.1282
     23 C         139.2471  140.1811  167.1599 C.ar    1  UNL1        0.1668
     24 N         139.7303  141.4537  167.7902 N.ar    1  UNL1       -0.2884
     25 C         140.2303  142.6647  167.0599 C.3     1  UNL1        0.1340
     26 C         139.1791  139.8962  165.6888 C.ar    1  UNL1        0.0359
     27 C         138.9002  138.5035  165.2067 C.ar    1  UNL1        0.0030
     28 C         138.8322  138.2186  163.7355 C.ar    1  UNL1        0.0039
     29 C         139.0432  139.3264  162.7465 C.ar    1  UNL1        0.0714
     30 C         139.3221  140.7192  163.2287 C.ar    1  UNL1        0.0039
     31 C         139.3900  141.0040  164.6998 C.ar    1  UNL1        0.0030
     32 C         138.9752  139.0415  161.2754 C.3     1  UNL1        0.4186
     33 F         138.9072  138.7567  159.8043 F       1  UNL1       -0.1659
     34 F         138.1546  137.8164  161.5505 F       1  UNL1       -0.1659
     35 F         139.7958  140.2667  161.0002 F       1  UNL1       -0.1659
@<TRIPOS>BOND
     1     4     5    1
     2     5     6   ar
     3     6     7   ar
     4     7     8   ar
     5     8     9   ar
     6     9    10   ar
     7    10    11   ar
     8    11    12   ar
     9    12    13   ar
    10    10    14    1
    11    14    15    1
    12    15    16    1
    13    16     3    1
    14     3     2    1
    15     2     1    1
    16     1    19    1
    17    19    20    1
    18    20    21   ar
    19    21    22   ar
    20    22    23   ar
    21    23    26    1
    22    26    27   ar
    23    27    28   ar
    24    28    29   ar
    25    29    32    1
    26    32    33    1
    27    32    34    1
    28    32    35    1
    29    29    30   ar
    30    30    31   ar
    31    23    24   ar
    32    24    25    1
    33    16    17    1
    34    17    18    1
    35    13     5   ar
    36    24    20   ar
    37    12     7   ar
    38    31    26   ar
    39    18     9    1
@<TRIPOS>MOLECULE
*****
 35 39 0 0 0
SMALL
GASTEIGER

@<TRIPOS>ATOM
      1 C         142.9042  138.1399  158.7277 C.3     1  UNL1        0.0666
      2 C         142.8825  137.4566  160.0629 C.3     1  UNL1        0.0294
      3 C         143.8235  137.8955  161.1455 C.3     1  UNL1        0.0730
      4 C         139.8123  142.5594  170.4958 C.3     1  UNL1        0.0950
      5 C         140.3499  141.9343  169.2426 C.ar    1  UNL1        0.2062
      6 N         141.6140  142.3238  168.5352 N.ar    1  UNL1       -0.2121
      7 C         141.7631  141.4402  167.3323 C.ar    1  UNL1        0.1182
      8 C         142.8147  141.3667  166.2651 C.ar    1  UNL1        0.0178
      9 C         142.6942  140.3576  165.1618 C.ar    1  UNL1       -0.0230
     10 C         141.5224  139.4221  165.1258 C.ar    1  UNL1       -0.0216
     11 C         140.4708  139.4955  166.1929 C.ar    1  UNL1        0.0346
     12 C         140.5912  140.5046  167.2962 C.ar    1  UNL1        0.1640
     13 O         139.7178  140.8100  168.4769 O.2     1  UNL1       -0.4384
     14 C         141.2119  138.3500  164.1235 C.3     1  UNL1        0.0434
     15 C         141.9969  137.9488  162.9098 C.3     1  UNL1        0.0768
     16 N         143.2859  138.5205  162.3987 N.3     1  UNL1       -0.2720
     17 C         144.1085  139.6347  162.9748 C.3     1  UNL1        0.0768
     18 C         143.8452  140.4522  164.2046 C.3     1  UNL1        0.0434
     19 S         141.6745  138.8319  158.2193 S.3     1  UNL1       -0.0756
     20 C         140.6427  139.3339  159.1855 C.ar    1  UNL1        0.1932
     21 N         139.2575  138.7857  159.3600 N.ar    1  UNL1       -0.1221
     22 N         138.5737  139.5852  160.4292 N.ar    1  UNL1       -0.1282
     23 C         139.5364  140.6276  160.9155 C.ar    1  UNL1        0.1668
     24 N         140.8152  140.4724  160.1469 N.ar    1  UNL1       -0.2884
     25 C         142.0495  141.3087  160.3109 C.3     1  UNL1        0.1340
     26 C         139.2676  141.6465  161.9831 C.ar    1  UNL1        0.0359
     27 C         138.0454  142.5124  161.9027 C.ar    1  UNL1        0.0030
     28 C         137.7766  143.5312  162.9703 C.ar    1  UNL1        0.0039
     29 C         138.7298  143.6842  164.1182 C.ar    1  UNL1        0.0714
     30 C         139.9520  142.8183  164.1986 C.ar    1  UNL1        0.0039
     31 C         140.2209  141.7995  163.1310 C.ar    1  UNL1        0.0030
     32 C         138.4610  144.7031  165.1858 C.3     1  UNL1        0.4186
     33 F         138.1922  145.7219  166.2533 F       1  UNL1       -0.1659
     34 F         139.9109  145.0875  165.1839 F       1  UNL1       -0.1659
     35 F         137.0111  144.3186  165.1876 F       1  UNL1       -0.1659
@<TRIPOS>BOND
     1     4     5    1
     2     5     6   ar
     3     6     7   ar
     4     7     8   ar
     5     8     9   ar
     6     9    10   ar
     7    10    11   ar
     8    11    12   ar
     9    12    13   ar
    10    10    14    1
    11    14    15    1
    12    15    16    1
    13    16     3    1
    14     3     2    1
    15     2     1    1
    16     1    19    1
    17    19    20    1
    18    20    21   ar
    19    21    22   ar
    20    22    23   ar
    21    23    26    1
    22    26    27   ar
    23    27    28   ar
    24    28    29   ar
    25    29    32    1
    26    32    33    1
    27    32    34    1
    28    32    35    1
    29    29    30   ar
    30    30    31   ar
    31    23    24   ar
    32    24    25    1
    33    16    17    1
    34    17    18    1
    35    13     5   ar
    36    24    20   ar
    37    12     7   ar
    38    31    26   ar
    39    18     9    1
