@<TRIPOS>MOLECULE
*****
 32 36 0 0 0
SMALL
GASTEIGER

@<TRIPOS>ATOM
      1 C         141.3684  142.5701  166.7537 C.ar    1  UNL1        0.0532
      2 C         140.0441  143.2544  166.9212 C.ar    1  UNL1        0.0043
      3 C         139.4530  144.0331  165.7835 C.ar    1  UNL1       -0.0044
      4 C         140.1863  144.1275  164.4783 C.ar    1  UNL1       -0.0247
      5 C         141.5105  143.4432  164.3108 C.ar    1  UNL1       -0.0245
      6 C         142.1016  142.6646  165.4485 C.ar    1  UNL1        0.0001
      7 C         142.4004  143.4106  163.1037 C.3     1  UNL1        0.0433
      8 C         142.1857  144.0544  161.7659 C.3     1  UNL1        0.0768
      9 N         141.0282  144.8895  161.3049 N.3     1  UNL1       -0.2720
     10 C         139.7994  145.2873  162.0678 C.3     1  UNL1        0.0768
     11 C         139.4247  144.9482  163.4801 C.3     1  UNL1        0.0433
     12 C         142.6430  138.6038  169.9978 C.3     1  UNL1        0.0742
     13 C         142.5453  139.9684  169.3825 C.ar    1  UNL1        0.1442
     14 C         143.1925  141.2180  169.9017 C.ar    1  UNL1        0.1349
     15 N         142.8304  142.3448  168.9801 N.ar    1  UNL1       -0.2070
     16 C         141.9595  141.7915  167.8914 C.ar    1  UNL1        0.2293
     17 O         141.7832  140.3228  168.1401 O.2     1  UNL1       -0.4389
     18 C         141.1102  145.3936  159.8945 C.3     1  UNL1        0.0730
     19 C         140.2511  144.7815  158.8281 C.3     1  UNL1        0.0294
     20 C         140.3944  143.3265  158.4926 C.3     1  UNL1        0.0666
     21 S         139.2723  142.3753  158.7853 S.3     1  UNL1       -0.0756
     22 C         138.8371  142.1419  160.2017 C.ar    1  UNL1        0.1932
     23 N         137.6524  142.7692  160.8748 N.ar    1  UNL1       -0.1221
     24 N         137.5933  142.2553  162.2827 N.ar    1  UNL1       -0.1277
     25 C         138.7414  141.3103  162.4798 C.ar    1  UNL1        0.1729
     26 N         139.5101  141.2402  161.1936 N.ar    1  UNL1       -0.2880
     27 C         140.7366  140.4136  160.9434 C.3     1  UNL1        0.1340
     28 C         139.0642  140.5661  163.7415 C.ar    1  UNL1        0.0654
     29 C         138.2554  140.5797  165.0046 C.ar    1  UNL1        0.0101
     30 C         138.9438  139.6996  166.0055 C.ar    1  UNL1        0.0076
     31 C         140.1781  139.1420  165.3608 C.ar    1  UNL1        0.0355
     32 S         140.2525  139.6776  163.9616 S.2     1  UNL1       -0.0833
@<TRIPOS>BOND
     1    12    13    1
     2    13    14   ar
     3    14    15   ar
     4    15    16   ar
     5    16     1    1
     6     1     2   ar
     7     2     3   ar
     8     3     4   ar
     9     4     5   ar
    10     5     6   ar
    11     5     7    1
    12     7     8    1
    13     8     9    1
    14     9    18    1
    15    18    19    1
    16    19    20    1
    17    20    21    1
    18    21    22    1
    19    22    23   ar
    20    23    24   ar
    21    24    25   ar
    22    25    28    1
    23    28    29   ar
    24    29    30   ar
    25    30    31   ar
    26    31    32   ar
    27    25    26   ar
    28    26    27    1
    29     9    10    1
    30    10    11    1
    31    16    17   ar
    32    17    13   ar
    33     6     1   ar
    34    26    22   ar
    35    11     4    1
    36    32    28   ar
@<TRIPOS>MOLECULE
*****
 32 36 0 0 0
SMALL
GASTEIGER

@<TRIPOS>ATOM
      1 C         139.8532  139.7328  166.3641 C.ar    1  UNL1        0.0532
      2 C         138.8959  138.7430  165.7692 C.ar    1  UNL1        0.0043
      3 C         139.1221  138.2221  164.3808 C.ar    1  UNL1       -0.0044
      4 C         140.3056  138.6910  163.5874 C.ar    1  UNL1       -0.0247
      5 C         141.2627  139.6808  164.1823 C.ar    1  UNL1       -0.0245
      6 C         141.0366  140.2017  165.5706 C.ar    1  UNL1        0.0001
      7 C         142.4959  140.2745  163.5683 C.3     1  UNL1        0.0433
      8 C         143.0764  140.0250  162.2078 C.3     1  UNL1        0.0768
      9 N         142.5670  139.1202  161.1254 N.3     1  UNL1       -0.2720
     10 C         141.3514  138.2414  161.1359 C.3     1  UNL1        0.0768
     11 C         140.3450  138.0504  162.2316 C.3     1  UNL1        0.0433
     12 C         139.9732  142.8058  170.6563 C.3     1  UNL1        0.0742
     13 C         139.6821  141.6662  169.7253 C.ar    1  UNL1        0.1442
     14 C         138.8757  140.4445  170.0524 C.ar    1  UNL1        0.1349
     15 N         138.8416  139.5714  168.8330 N.ar    1  UNL1       -0.2070
     16 C         139.6270  140.2537  167.7524 C.ar    1  UNL1        0.2293
     17 O         140.1465  141.5483  168.3039 O.2     1  UNL1       -0.4389
     18 C         143.3808  139.0902  159.8657 C.3     1  UNL1        0.0730
     19 C         143.2008  140.1609  158.8307 C.3     1  UNL1        0.0294
     20 C         143.9974  141.4290  158.9169 C.3     1  UNL1        0.0666
     21 S         143.2954  142.7487  159.0411 S.3     1  UNL1       -0.0756
     22 C         142.6800  143.1507  160.3486 C.ar    1  UNL1        0.1932
     23 N         143.3709  143.8843  161.4597 N.ar    1  UNL1       -0.1221
     24 N         142.3836  144.0767  162.5725 N.ar    1  UNL1       -0.1277
     25 C         141.0824  143.4621  162.1490 C.ar    1  UNL1        0.1729
     26 N         141.2656  142.8897  160.7746 N.ar    1  UNL1       -0.2880
     27 C         140.2183  142.1809  159.9680 C.3     1  UNL1        0.1340
     28 C         139.8198  143.4260  162.9580 C.ar    1  UNL1        0.0654
     29 C         138.9933  142.2085  163.2486 C.ar    1  UNL1        0.0101
     30 C         137.8246  142.6312  164.0886 C.ar    1  UNL1        0.0076
     31 C         137.9288  144.1100  164.3172 C.ar    1  UNL1        0.0355
     32 S         139.1619  144.6012  163.6184 S.2     1  UNL1       -0.0833
@<TRIPOS>BOND
     1    12    13    1
     2    13    14   ar
     3    14    15   ar
     4    15    16   ar
     5    16     1    1
     6     1     2   ar
     7     2     3   ar
     8     3     4   ar
     9     4     5   ar
    10     5     6   ar
    11     5     7    1
    12     7     8    1
    13     8     9    1
    14     9    18    1
    15    18    19    1
    16    19    20    1
    17    20    21    1
    18    21    22    1
    19    22    23   ar
    20    23    24   ar
    21    24    25   ar
    22    25    28    1
    23    28    29   ar
    24    29    30   ar
    25    30    31   ar
    26    31    32   ar
    27    25    26   ar
    28    26    27    1
    29     9    10    1
    30    10    11    1
    31    16    17   ar
    32    17    13   ar
    33     6     1   ar
    34    26    22   ar
    35    11     4    1
    36    32    28   ar
@<TRIPOS>MOLECULE
*****
 32 36 0 0 0
SMALL
GASTEIGER

@<TRIPOS>ATOM
      1 C         141.8015  140.3629  166.9520 C.ar    1  UNL1        0.0532
      2 C         142.7187  139.1763  166.9242 C.ar    1  UNL1        0.0043
      3 C         143.4805  138.8463  165.6748 C.ar    1  UNL1       -0.0044
      4 C         143.3251  139.7031  164.4533 C.ar    1  UNL1       -0.0247
      5 C         142.4080  140.8896  164.4813 C.ar    1  UNL1       -0.0245
      6 C         141.6462  141.2196  165.7305 C.ar    1  UNL1        0.0001
      7 C         142.1098  141.8673  163.3833 C.3     1  UNL1        0.0433
      8 C         142.6553  141.8997  161.9863 C.3     1  UNL1        0.0768
      9 N         143.6335  140.9626  161.3424 N.3     1  UNL1       -0.2720
     10 C         144.3080  139.7616  161.9362 C.3     1  UNL1        0.0768
     11 C         144.1707  139.2010  163.3207 C.3     1  UNL1        0.0433
     12 C         139.5699  143.0519  170.9105 C.3     1  UNL1        0.0742
     13 C         140.0140  141.9287  170.0208 C.ar    1  UNL1        0.1442
     14 C         139.7210  140.4722  170.2269 C.ar    1  UNL1        0.1349
     15 N         140.3550  139.7082  169.1023 N.ar    1  UNL1       -0.2070
     16 C         141.0397  140.6927  168.2013 C.ar    1  UNL1        0.2293
     17 O         140.8290  142.0651  168.7690 O.2     1  UNL1       -0.4389
     18 C         143.9837  141.2668  159.9159 C.3     1  UNL1        0.0730
     19 C         143.5646  140.3274  158.8240 C.3     1  UNL1        0.0294
     20 C         142.1226  140.2430  158.4196 C.3     1  UNL1        0.0666
     21 S         141.3258  139.0121  158.7359 S.3     1  UNL1       -0.0756
     22 C         141.1281  138.5927  160.1625 C.ar    1  UNL1        0.1932
     23 N         141.8313  137.4631  160.8549 N.ar    1  UNL1       -0.1221
     24 N         141.3303  137.4015  162.2674 N.ar    1  UNL1       -0.1277
     25 C         140.3175  138.4931  162.4480 C.ar    1  UNL1        0.1729
     26 N         140.1925  139.2294  161.1471 N.ar    1  UNL1       -0.2880
     27 C         139.2904  140.3972  160.8780 C.3     1  UNL1        0.1340
     28 C         139.5623  138.7955  163.7082 C.ar    1  UNL1        0.0654
     29 C         139.5811  137.9773  164.9652 C.ar    1  UNL1        0.0101
     30 C         138.6861  138.6452  165.9666 C.ar    1  UNL1        0.0076
     31 C         138.1140  139.8763  165.3285 C.ar    1  UNL1        0.0355
     32 S         138.6556  139.9691  163.9327 S.2     1  UNL1       -0.0833
@<TRIPOS>BOND
     1    12    13    1
     2    13    14   ar
     3    14    15   ar
     4    15    16   ar
     5    16     1    1
     6     1     2   ar
     7     2     3   ar
     8     3     4   ar
     9     4     5   ar
    10     5     6   ar
    11     5     7    1
    12     7     8    1
    13     8     9    1
    14     9    18    1
    15    18    19    1
    16    19    20    1
    17    20    21    1
    18    21    22    1
    19    22    23   ar
    20    23    24   ar
    21    24    25   ar
    22    25    28    1
    23    28    29   ar
    24    29    30   ar
    25    30    31   ar
    26    31    32   ar
    27    25    26   ar
    28    26    27    1
    29     9    10    1
    30    10    11    1
    31    16    17   ar
    32    17    13   ar
    33     6     1   ar
    34    26    22   ar
    35    11     4    1
    36    32    28   ar
@<TRIPOS>MOLECULE
*****
 32 36 0 0 0
SMALL
GASTEIGER

@<TRIPOS>ATOM
      1 C         139.4709  139.9179  166.1514 C.ar    1  UNL1        0.0532
      2 C         139.0053  138.4955  166.0511 C.ar    1  UNL1        0.0043
      3 C         138.7893  137.8702  164.7049 C.ar    1  UNL1       -0.0044
      4 C         139.0389  138.6674  163.4589 C.ar    1  UNL1       -0.0247
      5 C         139.5045  140.0896  163.5593 C.ar    1  UNL1       -0.0245
      6 C         139.7205  140.7150  164.9054 C.ar    1  UNL1        0.0001
      7 C         139.8100  141.0541  162.4517 C.3     1  UNL1        0.0433
      8 C         139.7252  140.8342  160.9702 C.3     1  UNL1        0.0768
      9 N         139.3141  139.5958  160.2306 N.3     1  UNL1       -0.2720
     10 C         138.8862  138.2713  160.7896 C.3     1  UNL1        0.0768
     11 C         138.7637  137.8580  162.2263 C.3     1  UNL1        0.0433
     12 C         140.7362  143.3720  169.9394 C.3     1  UNL1        0.0742
     13 C         140.2686  142.1308  169.2388 C.ar    1  UNL1        0.1442
     14 C         139.7703  140.8799  169.8998 C.ar    1  UNL1        0.1349
     15 N         139.4109  139.8986  168.8237 N.ar    1  UNL1       -0.2070
     16 C         139.6870  140.5431  167.4977 C.ar    1  UNL1        0.2293
     17 O         140.2170  141.9227  167.7542 O.2     1  UNL1       -0.4389
     18 C         139.3335  139.6950  158.7340 C.3     1  UNL1        0.0730
     19 C         140.6325  139.5859  157.9918 C.3     1  UNL1        0.0294
     20 C         141.2779  138.2451  157.8026 C.3     1  UNL1        0.0666
     21 S         142.5477  137.9148  158.5294 S.3     1  UNL1       -0.0756
     22 C         142.7515  138.3904  159.9374 C.ar    1  UNL1        0.1932
     23 N         142.3344  137.6648  161.1822 N.ar    1  UNL1       -0.1221
     24 N         142.7332  138.5011  162.3619 N.ar    1  UNL1       -0.1277
     25 C         143.3968  139.7435  161.8461 C.ar    1  UNL1        0.1729
     26 N         143.4080  139.6752  160.3476 N.ar    1  UNL1       -0.2880
     27 C         143.9761  140.7099  159.4221 C.3     1  UNL1        0.1340
     28 C         143.9516  140.8586  162.6819 C.ar    1  UNL1        0.0654
     29 C         145.2230  140.8163  163.4766 C.ar    1  UNL1        0.0101
     30 C         145.3897  142.1434  164.1558 C.ar    1  UNL1        0.0076
     31 C         144.2212  143.0059  163.7807 C.ar    1  UNL1        0.0355
     32 S         143.3324  142.2119  162.8698 S.2     1  UNL1       -0.0833
@<TRIPOS>BOND
     1    12    13    1
     2    13    14   ar
     3    14    15   ar
     4    15    16   ar
     5    16     1    1
     6     1     2   ar
     7     2     3   ar
     8     3     4   ar
     9     4     5   ar
    10     5     6   ar
    11     5     7    1
    12     7     8    1
    13     8     9    1
    14     9    18    1
    15    18    19    1
    16    19    20    1
    17    20    21    1
    18    21    22    1
    19    22    23   ar
    20    23    24   ar
    21    24    25   ar
    22    25    28    1
    23    28    29   ar
    24    29    30   ar
    25    30    31   ar
    26    31    32   ar
    27    25    26   ar
    28    26    27    1
    29     9    10    1
    30    10    11    1
    31    16    17   ar
    32    17    13   ar
    33     6     1   ar
    34    26    22   ar
    35    11     4    1
    36    32    28   ar
@<TRIPOS>MOLECULE
*****
 32 36 0 0 0
SMALL
GASTEIGER

@<TRIPOS>ATOM
      1 C         139.2653  140.0325  166.0534 C.ar    1  UNL1        0.0532
      2 C         139.1775  138.5814  165.6837 C.ar    1  UNL1        0.0043
      3 C         138.9423  138.1839  164.2565 C.ar    1  UNL1       -0.0044
      4 C         138.7948  139.2376  163.1991 C.ar    1  UNL1       -0.0247
      5 C         138.8826  140.6885  163.5688 C.ar    1  UNL1       -0.0245
      6 C         139.1178  141.0861  164.9959 C.ar    1  UNL1        0.0001
      7 C         138.7646  141.8895  162.6778 C.3     1  UNL1        0.0433
      8 C         138.5297  141.9359  161.1969 C.3     1  UNL1        0.0768
      9 N         138.3547  140.7929  160.2416 N.3     1  UNL1       -0.2720
     10 C         138.3715  139.3212  160.5308 C.3     1  UNL1        0.0768
     11 C         138.5674  138.6289  161.8471 C.3     1  UNL1        0.0433
     12 C         140.8249  142.7100  170.3288 C.3     1  UNL1        0.0742
     13 C         140.2174  141.6607  169.4456 C.ar    1  UNL1        0.1442
     14 C         139.5076  140.4226  169.9075 C.ar    1  UNL1        0.1349
     15 N         139.0645  139.6619  168.6929 N.ar    1  UNL1       -0.2070
     16 C         139.5005  140.4299  167.4805 C.ar    1  UNL1        0.2293
     17 O         140.2130  141.6653  167.9457 O.2     1  UNL1       -0.4389
     18 C         138.1338  141.1717  158.8071 C.3     1  UNL1        0.0730
     19 C         138.3040  142.5975  158.3730 C.3     1  UNL1        0.0294
     20 C         139.6450  143.0859  157.9113 C.3     1  UNL1        0.0666
     21 S         140.1558  144.4198  158.3693 S.3     1  UNL1       -0.0756
     22 C         140.4405  144.6548  159.8232 C.ar    1  UNL1        0.1932
     23 N         139.7092  145.6074  160.7220 N.ar    1  UNL1       -0.1221
     24 N         140.3231  145.5200  162.0878 N.ar    1  UNL1       -0.1277
     25 C         141.4338  144.5133  162.0331 C.ar    1  UNL1        0.1729
     26 N         141.5063  143.9786  160.6335 N.ar    1  UNL1       -0.2880
     27 C         142.4747  142.9486  160.1323 C.3     1  UNL1        0.1340
     28 C         142.3170  144.1118  163.1772 C.ar    1  UNL1        0.0654
     29 C         141.9828  143.1053  164.2378 C.ar    1  UNL1        0.0101
     30 C         143.1487  143.0177  165.1777 C.ar    1  UNL1        0.0076
     31 C         144.2034  143.9702  164.6978 C.ar    1  UNL1        0.0355
     32 S         143.6894  144.6464  163.4614 S.2     1  UNL1       -0.0833
@<TRIPOS>BOND
     1    12    13    1
     2    13    14   ar
     3    14    15   ar
     4    15    16   ar
     5    16     1    1
     6     1     2   ar
     7     2     3   ar
     8     3     4   ar
     9     4     5   ar
    10     5     6   ar
    11     5     7    1
    12     7     8    1
    13     8     9    1
    14     9    18    1
    15    18    19    1
    16    19    20    1
    17    20    21    1
    18    21    22    1
    19    22    23   ar
    20    23    24   ar
    21    24    25   ar
    22    25    28    1
    23    28    29   ar
    24    29    30   ar
    25    30    31   ar
    26    31    32   ar
    27    25    26   ar
    28    26    27    1
    29     9    10    1
    30    10    11    1
    31    16    17   ar
    32    17    13   ar
    33     6     1   ar
    34    26    22   ar
    35    11     4    1
    36    32    28   ar
@<TRIPOS>MOLECULE
*****
 32 36 0 0 0
SMALL
GASTEIGER

@<TRIPOS>ATOM
      1 C         140.0486  140.3951  167.2124 C.ar    1  UNL1        0.0532
      2 C         138.9712  139.3533  167.2751 C.ar    1  UNL1        0.0043
      3 C         138.5974  138.5857  166.0418 C.ar    1  UNL1       -0.0044
      4 C         139.3011  138.8599  164.7457 C.ar    1  UNL1       -0.0247
      5 C         140.3784  139.9016  164.6831 C.ar    1  UNL1       -0.0245
      6 C         140.7522  140.6692  165.9163 C.ar    1  UNL1        0.0001
      7 C         141.1992  140.3284  163.5022 C.3     1  UNL1        0.0433
      8 C         141.1451  139.8188  162.0924 C.3     1  UNL1        0.0768
      9 N         140.2570  138.7566  161.5154 N.3     1  UNL1       -0.2720
     10 C         139.2036  137.9416  162.2054 C.3     1  UNL1        0.0768
     11 C         138.7782  137.9876  163.6431 C.3     1  UNL1        0.0433
     12 C         142.7296  143.3607  170.6618 C.3     1  UNL1        0.0742
     13 C         141.6546  142.5258  170.0312 C.ar    1  UNL1        0.1442
     14 C         140.3404  142.1620  170.6560 C.ar    1  UNL1        0.1349
     15 N         139.5787  141.3195  169.6761 N.ar    1  UNL1       -0.2070
     16 C         140.4223  141.1627  168.4457 C.ar    1  UNL1        0.2293
     17 O         141.7053  141.9082  168.6652 O.2     1  UNL1       -0.4389
     18 C         140.4475  138.4717  160.0550 C.3     1  UNL1        0.0730
     19 C         140.2625  139.5669  159.0468 C.3     1  UNL1        0.0294
     20 C         138.9546  139.7102  158.3265 C.3     1  UNL1        0.0666
     21 S         138.1518  140.9687  158.4727 S.3     1  UNL1       -0.0756
     22 C         138.6097  142.0456  159.4112 C.ar    1  UNL1        0.1932
     23 N         139.3786  143.2767  159.0327 N.ar    1  UNL1       -0.1221
     24 N         139.6232  144.0724  160.2805 N.ar    1  UNL1       -0.1277
     25 C         139.0055  143.3330  161.4302 C.ar    1  UNL1        0.1729
     26 N         138.3791  142.0804  160.8930 N.ar    1  UNL1       -0.2880
     27 C         137.6502  141.0445  161.6965 C.3     1  UNL1        0.1340
     28 C         139.0129  143.7696  162.8652 C.ar    1  UNL1        0.0654
     29 C         137.8157  144.1901  163.6650 C.ar    1  UNL1        0.0101
     30 C         138.2816  144.5428  165.0466 C.ar    1  UNL1        0.0076
     31 C         139.7669  144.3403  165.1006 C.ar    1  UNL1        0.0355
     32 S         140.2189  143.8624  163.7524 S.2     1  UNL1       -0.0833
@<TRIPOS>BOND
     1    12    13    1
     2    13    14   ar
     3    14    15   ar
     4    15    16   ar
     5    16     1    1
     6     1     2   ar
     7     2     3   ar
     8     3     4   ar
     9     4     5   ar
    10     5     6   ar
    11     5     7    1
    12     7     8    1
    13     8     9    1
    14     9    18    1
    15    18    19    1
    16    19    20    1
    17    20    21    1
    18    21    22    1
    19    22    23   ar
    20    23    24   ar
    21    24    25   ar
    22    25    28    1
    23    28    29   ar
    24    29    30   ar
    25    30    31   ar
    26    31    32   ar
    27    25    26   ar
    28    26    27    1
    29     9    10    1
    30    10    11    1
    31    16    17   ar
    32    17    13   ar
    33     6     1   ar
    34    26    22   ar
    35    11     4    1
    36    32    28   ar
@<TRIPOS>MOLECULE
*****
 32 36 0 0 0
SMALL
GASTEIGER

@<TRIPOS>ATOM
      1 C         142.1454  141.9113  167.0397 C.ar    1  UNL1        0.0532
      2 C         143.5367  142.2136  166.5677 C.ar    1  UNL1        0.0043
      3 C         143.7470  143.0200  165.3205 C.ar    1  UNL1       -0.0044
      4 C         142.5658  143.5241  164.5453 C.ar    1  UNL1       -0.0247
      5 C         141.1746  143.2217  165.0173 C.ar    1  UNL1       -0.0245
      6 C         140.9643  142.4153  166.2645 C.ar    1  UNL1        0.0001
      7 C         139.8688  143.6248  164.3987 C.3     1  UNL1        0.0433
      8 C         139.6320  144.4297  163.1552 C.3     1  UNL1        0.0768
      9 N         140.6423  145.0304  162.2235 N.3     1  UNL1       -0.2720
     10 C         142.1390  144.9745  162.3048 C.3     1  UNL1        0.0768
     11 C         142.9951  144.3042  163.3381 C.3     1  UNL1        0.0433
     12 C         139.8892  139.7104  171.2760 C.3     1  UNL1        0.0742
     13 C         140.8982  140.0932  170.2341 C.ar    1  UNL1        0.1442
     14 C         142.3252  139.6346  170.1782 C.ar    1  UNL1        0.1349
     15 N         142.9662  140.2599  168.9747 N.ar    1  UNL1       -0.2070
     16 C         141.9352  141.1048  168.2869 C.ar    1  UNL1        0.2293
     17 O         140.6571  141.0018  169.0652 O.2     1  UNL1       -0.4389
     18 C         140.0817  145.7870  161.0558 C.3     1  UNL1        0.0730
     19 C         140.3742  145.3316  159.6568 C.3     1  UNL1        0.0294
     20 C         139.7686  144.0604  159.1398 C.3     1  UNL1        0.0666
     21 S         140.2048  142.7395  159.7007 S.3     1  UNL1       -0.0756
     22 C         139.3473  142.0324  160.7081 C.ar    1  UNL1        0.1932
     23 N         137.8542  142.1273  160.8165 N.ar    1  UNL1       -0.1221
     24 N         137.4164  141.2599  161.9593 N.ar    1  UNL1       -0.1277
     25 C         138.6389  140.6290  162.5572 C.ar    1  UNL1        0.1729
     26 N         139.8323  141.1065  161.7839 N.ar    1  UNL1       -0.2880
     27 C         141.2599  140.7249  162.0413 C.3     1  UNL1        0.1340
     28 C         138.6637  139.6862  163.7235 C.ar    1  UNL1        0.0654
     29 C         139.0655  138.2417  163.6812 C.ar    1  UNL1        0.0101
     30 C         138.9412  137.6850  165.0686 C.ar    1  UNL1        0.0076
     31 C         138.4625  138.7856  165.9684 C.ar    1  UNL1        0.0355
     32 S         138.2910  140.0224  165.1371 S.2     1  UNL1       -0.0833
@<TRIPOS>BOND
     1    12    13    1
     2    13    14   ar
     3    14    15   ar
     4    15    16   ar
     5    16     1    1
     6     1     2   ar
     7     2     3   ar
     8     3     4   ar
     9     4     5   ar
    10     5     6   ar
    11     5     7    1
    12     7     8    1
    13     8     9    1
    14     9    18    1
    15    18    19    1
    16    19    20    1
    17    20    21    1
    18    21    22    1
    19    22    23   ar
    20    23    24   ar
    21    24    25   ar
    22    25    28    1
    23    28    29   ar
    24    29    30   ar
    25    30    31   ar
    26    31    32   ar
    27    25    26   ar
    28    26    27    1
    29     9    10    1
    30    10    11    1
    31    16    17   ar
    32    17    13   ar
    33     6     1   ar
    34    26    22   ar
    35    11     4    1
    36    32    28   ar
@<TRIPOS>MOLECULE
*****
 32 36 0 0 0
SMALL
GASTEIGER

@<TRIPOS>ATOM
      1 C         142.9934  141.9928  166.6747 C.ar    1  UNL1        0.0532
      2 C         143.9052  142.9238  165.9318 C.ar    1  UNL1        0.0043
      3 C         144.3942  142.5596  164.5613 C.ar    1  UNL1       -0.0044
      4 C         143.9713  141.2644  163.9337 C.ar    1  UNL1       -0.0247
      5 C         143.0596  140.3335  164.6766 C.ar    1  UNL1       -0.0245
      6 C         142.5706  140.6976  166.0471 C.ar    1  UNL1        0.0001
      7 C         142.5209  139.0040  164.2380 C.3     1  UNL1        0.0433
      8 C         142.7611  138.2772  162.9479 C.3     1  UNL1        0.0768
      9 N         143.5991  138.7003  161.7781 N.3     1  UNL1       -0.2720
     10 C         144.4041  139.9547  161.6093 C.3     1  UNL1        0.0768
     11 C         144.5697  141.0959  162.5686 C.3     1  UNL1        0.0433
     12 C         139.8137  143.0784  170.7481 C.3     1  UNL1        0.0742
     13 C         141.0429  142.8560  169.9175 C.ar    1  UNL1        0.1442
     14 C         142.4609  142.9790  170.3908 C.ar    1  UNL1        0.1349
     15 N         143.3643  142.6706  169.2336 N.ar    1  UNL1       -0.2070
     16 C         142.5045  142.3570  168.0452 C.ar    1  UNL1        0.2293
     17 O         141.0698  142.4716  168.4679 O.2     1  UNL1       -0.4389
     18 C         143.6373  137.7423  160.6245 C.3     1  UNL1        0.0730
     19 C         142.4868  137.6784  159.6642 C.3     1  UNL1        0.0294
     20 C         141.6940  138.9150  159.3602 C.3     1  UNL1        0.0666
     21 S         140.2360  138.9753  159.7073 S.3     1  UNL1       -0.0756
     22 C         139.8035  139.5183  161.0370 C.ar    1  UNL1        0.1932
     23 N         139.3215  138.7099  162.2049 N.ar    1  UNL1       -0.1221
     24 N         138.9971  139.6570  163.3220 N.ar    1  UNL1       -0.1277
     25 C         139.2786  141.0508  162.8443 C.ar    1  UNL1        0.1729
     26 N         139.7770  140.9651  161.4321 N.ar    1  UNL1       -0.2880
     27 C         140.1783  142.1229  160.5670 C.3     1  UNL1        0.1340
     28 C         139.0941  142.3094  163.6393 C.ar    1  UNL1        0.0654
     29 C         137.7858  142.9782  163.9405 C.ar    1  UNL1        0.0101
     30 C         138.0686  144.2023  164.7600 C.ar    1  UNL1        0.0076
     31 C         139.5519  144.2900  164.9653 C.ar    1  UNL1        0.0355
     32 S         140.1857  143.1201  164.2727 S.2     1  UNL1       -0.0833
@<TRIPOS>BOND
     1    12    13    1
     2    13    14   ar
     3    14    15   ar
     4    15    16   ar
     5    16     1    1
     6     1     2   ar
     7     2     3   ar
     8     3     4   ar
     9     4     5   ar
    10     5     6   ar
    11     5     7    1
    12     7     8    1
    13     8     9    1
    14     9    18    1
    15    18    19    1
    16    19    20    1
    17    20    21    1
    18    21    22    1
    19    22    23   ar
    20    23    24   ar
    21    24    25   ar
    22    25    28    1
    23    28    29   ar
    24    29    30   ar
    25    30    31   ar
    26    31    32   ar
    27    25    26   ar
    28    26    27    1
    29     9    10    1
    30    10    11    1
    31    16    17   ar
    32    17    13   ar
    33     6     1   ar
    34    26    22   ar
    35    11     4    1
    36    32    28   ar
@<TRIPOS>MOLECULE
*****
 32 36 0 0 0
SMALL
GASTEIGER

@<TRIPOS>ATOM
      1 C         142.6335  139.9347  166.1733 C.ar    1  UNL1        0.0532
      2 C         143.2739  141.2245  165.7534 C.ar    1  UNL1        0.0043
      3 C         143.5949  141.4669  164.3083 C.ar    1  UNL1       -0.0044
      4 C         143.2754  140.4195  163.2831 C.ar    1  UNL1       -0.0247
      5 C         142.6350  139.1298  163.7031 C.ar    1  UNL1       -0.0245
      6 C         142.3140  138.8874  165.1481 C.ar    1  UNL1        0.0001
      7 C         142.2364  137.9622  162.8499 C.3     1  UNL1        0.0433
      8 C         142.3797  137.7961  161.3659 C.3     1  UNL1        0.0768
      9 N         142.9571  138.7565  160.3689 N.3     1  UNL1       -0.2720
     10 C         143.5338  140.1202  160.6093 C.3     1  UNL1        0.0768
     11 C         143.6754  140.8603  161.9063 C.3     1  UNL1        0.0433
     12 C         140.2143  140.0365  170.8656 C.3     1  UNL1        0.0742
     13 C         141.2005  139.7392  169.7751 C.ar    1  UNL1        0.1442
     14 C         142.4365  138.9000  169.9091 C.ar    1  UNL1        0.1349
     15 N         143.1238  138.8711  168.5760 N.ar    1  UNL1       -0.2070
     16 C         142.3125  139.6924  167.6184 C.ar    1  UNL1        0.2293
     17 O         141.1239  140.2290  168.3595 O.2     1  UNL1       -0.4389
     18 C         142.9580  138.2917  158.9427 C.3     1  UNL1        0.0730
     19 C         141.9351  138.8200  157.9810 C.3     1  UNL1        0.0294
     20 C         140.4778  138.7687  158.3328 C.3     1  UNL1        0.0666
     21 S         139.7818  140.0020  158.8273 S.3     1  UNL1       -0.0756
     22 C         139.7200  140.2895  160.2982 C.ar    1  UNL1        0.1932
     23 N         140.1869  141.5461  160.9712 N.ar    1  UNL1       -0.1221
     24 N         139.9359  141.4042  162.4433 N.ar    1  UNL1       -0.1277
     25 C         139.3138  140.0600  162.6799 C.ar    1  UNL1        0.1729
     26 N         139.1803  139.3710  161.3541 N.ar    1  UNL1       -0.2880
     27 C         138.6078  138.0037  161.1248 C.3     1  UNL1        0.1340
     28 C         138.8981  139.5025  164.0090 C.ar    1  UNL1        0.0654
     29 C         138.8901  138.0527  164.3934 C.ar    1  UNL1        0.0101
     30 C         138.4045  137.9511  165.8090 C.ar    1  UNL1        0.0076
     31 C         138.1123  139.3382  166.2995 C.ar    1  UNL1        0.0355
     32 S         138.4174  140.2970  165.1870 S.2     1  UNL1       -0.0833
@<TRIPOS>BOND
     1    12    13    1
     2    13    14   ar
     3    14    15   ar
     4    15    16   ar
     5    16     1    1
     6     1     2   ar
     7     2     3   ar
     8     3     4   ar
     9     4     5   ar
    10     5     6   ar
    11     5     7    1
    12     7     8    1
    13     8     9    1
    14     9    18    1
    15    18    19    1
    16    19    20    1
    17    20    21    1
    18    21    22    1
    19    22    23   ar
    20    23    24   ar
    21    24    25   ar
    22    25    28    1
    23    28    29   ar
    24    29    30   ar
    25    30    31   ar
    26    31    32   ar
    27    25    26   ar
    28    26    27    1
    29     9    10    1
    30    10    11    1
    31    16    17   ar
    32    17    13   ar
    33     6     1   ar
    34    26    22   ar
    35    11     4    1
    36    32    28   ar
