@<TRIPOS>MOLECULE
*****
 34 38 0 0 0
SMALL
GASTEIGER

@<TRIPOS>ATOM
      1 C         139.6887  139.1719  164.7591 C.ar    1  UNL1        0.0041
      2 C         139.1429  137.8045  164.4723 C.ar    1  UNL1        0.0002
      3 C         138.6498  137.4672  163.0965 C.ar    1  UNL1        0.0015
      4 C         138.7024  138.4973  162.0074 C.ar    1  UNL1        0.0192
      5 C         139.2481  139.8647  162.2941 C.ar    1  UNL1        0.0856
      6 N         139.3007  140.8948  161.2051 N.ar    1  UNL1       -0.2264
      7 C         139.8465  142.2623  161.4918 C.ar    1  UNL1        0.1666
      8 N         140.3397  142.5996  162.8677 N.ar    1  UNL1       -0.2120
      9 C         140.2871  141.5695  163.9568 C.ar    1  UNL1        0.1318
     10 C         139.7413  140.2020  163.6700 C.ar    1  UNL1        0.0491
     11 C         141.1683  140.1840  168.8867 C.ar    1  UNL1        0.0479
     12 C         139.7262  140.3981  168.5334 C.ar    1  UNL1        0.0145
     13 C         139.2331  140.0607  167.1575 C.ar    1  UNL1        0.0013
     14 C         140.1819  139.5093  166.1350 C.ar    1  UNL1        0.0002
     15 C         141.6239  139.2952  166.4882 C.ar    1  UNL1        0.0013
     16 C         142.1171  139.6325  167.8640 C.ar    1  UNL1        0.0145
     17 C         142.9872  140.0004  170.7326 C.3     1  UNL1        0.1122
     18 N         141.6615  140.5213  170.2625 N.pl3   1  UNL1       -0.3041
     19 C         140.8289  141.3796  171.1682 C.3     1  UNL1        0.1122
     20 C         139.8991  143.2924  160.4027 C.ar    1  UNL1        0.0741
     21 C         139.9925  144.7483  160.7513 C.ar    1  UNL1        0.1052
     22 N         140.0451  145.7784  159.6622 N.ar    1  UNL1       -0.2223
     23 C         140.0043  145.3526  158.2246 C.ar    1  UNL1        0.1989
     24 N         139.9108  143.8966  157.8759 N.ar    1  UNL1       -0.2223
     25 C         139.8582  142.8665  158.9650 C.ar    1  UNL1        0.1052
     26 N         140.7802  141.9068  165.3326 N.pl3   1  UNL1       -0.3131
     27 H         140.2856  141.5924  166.1237 H       1  UNL1        0.1485
     28 C         142.0270  142.7232  165.5033 C.3     1  UNL1        0.1348
     29 C         143.2303  142.4412  164.6533 C.ar    1  UNL1        0.0788
     30 C         144.0634  141.2214  164.9138 C.ar    1  UNL1        0.0165
     31 C         145.2667  140.9394  164.0638 C.ar    1  UNL1        0.0029
     32 C         145.6369  141.8772  162.9532 C.ar    1  UNL1        0.0207
     33 C         144.8038  143.0971  162.6927 C.ar    1  UNL1        0.0985
     34 N         143.6005  143.3791  163.5427 N.ar    1  UNL1       -0.2464
@<TRIPOS>BOND
     1    17    18    1
     2    18    19    1
     3    18    11    1
     4    11    12   ar
     5    12    13   ar
     6    13    14   ar
     7    14     1    1
     8     1     2   ar
     9     2     3   ar
    10     3     4   ar
    11     4     5   ar
    12     5     6   ar
    13     6     7   ar
    14     7    20    1
    15    20    21   ar
    16    21    22   ar
    17    22    23   ar
    18    23    24   ar
    19    24    25   ar
    20     7     8   ar
    21     8     9   ar
    22     9    26    1
    23    26    28    1
    24    28    29    1
    25    29    30   ar
    26    30    31   ar
    27    31    32   ar
    28    32    33   ar
    29    33    34   ar
    30     9    10   ar
    31    14    15   ar
    32    15    16   ar
    33    16    11   ar
    34    10     1   ar
    35    10     5   ar
    36    25    20   ar
    37    34    29   ar
    38    26    27    1
@<TRIPOS>MOLECULE
*****
 34 38 0 0 0
SMALL
GASTEIGER

@<TRIPOS>ATOM
      1 C         143.4495  141.2864  164.7033 C.ar    1  UNL1        0.0041
      2 C         144.8163  141.9042  164.6931 C.ar    1  UNL1        0.0002
      3 C         145.5973  141.9763  163.4145 C.ar    1  UNL1        0.0015
      4 C         145.0114  141.4305  162.1461 C.ar    1  UNL1        0.0192
      5 C         143.6446  140.8127  162.1562 C.ar    1  UNL1        0.0856
      6 N         143.0588  140.2670  160.8878 N.ar    1  UNL1       -0.2264
      7 C         141.6920  139.6492  160.8979 C.ar    1  UNL1        0.1666
      8 N         140.9110  139.5771  162.1766 N.ar    1  UNL1       -0.2120
      9 C         141.4968  140.1229  163.4450 C.ar    1  UNL1        0.1318
     10 C         142.8637  140.7407  163.4348 C.ar    1  UNL1        0.0491
     11 C         141.1064  141.0702  168.5391 C.ar    1  UNL1        0.0479
     12 C         141.0558  142.3113  167.6983 C.ar    1  UNL1        0.0145
     13 C         141.8369  142.3834  166.4197 C.ar    1  UNL1        0.0013
     14 C         142.6684  141.2144  165.9819 C.ar    1  UNL1        0.0002
     15 C         142.7190  139.9732  166.8227 C.ar    1  UNL1        0.0013
     16 C         141.9380  139.9011  168.1013 C.ar    1  UNL1        0.0145
     17 C         140.9020  141.5636  171.0816 C.3     1  UNL1        0.1122
     18 N         140.3254  140.9981  169.8177 N.pl3   1  UNL1       -0.3041
     19 C         138.9678  140.3604  169.8323 C.3     1  UNL1        0.1122
     20 C         141.1062  139.1034  159.6295 C.ar    1  UNL1        0.0741
     21 C         141.9365  138.2327  158.7337 C.ar    1  UNL1        0.1052
     22 N         141.3506  137.6869  157.4653 N.ar    1  UNL1       -0.2223
     23 C         139.9345  138.0119  157.0926 C.ar    1  UNL1        0.1989
     24 N         139.1042  138.8827  157.9883 N.ar    1  UNL1       -0.2223
     25 C         139.6900  139.4285  159.2568 C.ar    1  UNL1        0.1052
     26 N         140.7158  140.0508  164.7236 N.pl3   1  UNL1       -0.3131
     27 H         141.1699  139.8170  165.5653 H       1  UNL1        0.1485
     28 C         139.2429  140.3350  164.7199 C.3     1  UNL1        0.1348
     29 C         138.7308  141.6324  164.1681 C.ar    1  UNL1        0.0788
     30 C         138.5792  142.8225  165.0685 C.ar    1  UNL1        0.0165
     31 C         138.0671  144.1200  164.5168 C.ar    1  UNL1        0.0029
     32 C         137.7066  144.2273  163.0647 C.ar    1  UNL1        0.0207
     33 C         137.8583  143.0372  162.1644 C.ar    1  UNL1        0.0985
     34 N         138.3703  141.7398  162.7161 N.ar    1  UNL1       -0.2464
@<TRIPOS>BOND
     1    17    18    1
     2    18    19    1
     3    18    11    1
     4    11    12   ar
     5    12    13   ar
     6    13    14   ar
     7    14     1    1
     8     1     2   ar
     9     2     3   ar
    10     3     4   ar
    11     4     5   ar
    12     5     6   ar
    13     6     7   ar
    14     7    20    1
    15    20    21   ar
    16    21    22   ar
    17    22    23   ar
    18    23    24   ar
    19    24    25   ar
    20     7     8   ar
    21     8     9   ar
    22     9    26    1
    23    26    28    1
    24    28    29    1
    25    29    30   ar
    26    30    31   ar
    27    31    32   ar
    28    32    33   ar
    29    33    34   ar
    30     9    10   ar
    31    14    15   ar
    32    15    16   ar
    33    16    11   ar
    34    10     1   ar
    35    10     5   ar
    36    25    20   ar
    37    34    29   ar
    38    26    27    1
@<TRIPOS>MOLECULE
*****
 34 38 0 0 0
SMALL
GASTEIGER

@<TRIPOS>ATOM
      1 C         140.7132  139.1594  165.0534 C.ar    1  UNL1        0.0041
      2 C         139.7151  138.0401  165.0214 C.ar    1  UNL1        0.0002
      3 C         139.4254  137.3302  163.7322 C.ar    1  UNL1        0.0015
      4 C         140.1338  137.7395  162.4750 C.ar    1  UNL1        0.0192
      5 C         141.1319  138.8587  162.5070 C.ar    1  UNL1        0.0856
      6 N         141.8404  139.2680  161.2498 N.ar    1  UNL1       -0.2264
      7 C         142.8385  140.3872  161.2817 C.ar    1  UNL1        0.1666
      8 N         143.1282  141.0972  162.5709 N.ar    1  UNL1       -0.2120
      9 C         142.4198  140.6879  163.8282 C.ar    1  UNL1        0.1318
     10 C         141.4216  139.5686  163.7961 C.ar    1  UNL1        0.0491
     11 C         141.5822  141.2894  168.9210 C.ar    1  UNL1        0.0479
     12 C         142.5066  140.2134  168.4332 C.ar    1  UNL1        0.0145
     13 C         142.2169  139.5034  167.1440 C.ar    1  UNL1        0.0013
     14 C         141.0029  139.8694  166.3426 C.ar    1  UNL1        0.0002
     15 C         140.0786  140.9453  166.8303 C.ar    1  UNL1        0.0013
     16 C         140.3682  141.6553  168.1195 C.ar    1  UNL1        0.0145
     17 C         140.9634  141.8136  171.3891 C.3     1  UNL1        0.1122
     18 N         141.8719  141.9994  170.2101 N.pl3   1  UNL1       -0.3041
     19 C         143.0700  142.8951  170.3203 C.3     1  UNL1        0.1122
     20 C         143.5469  140.7965  160.0245 C.ar    1  UNL1        0.0741
     21 C         144.1270  142.1746  159.9052 C.ar    1  UNL1        0.1052
     22 N         144.8355  142.5839  158.6480 N.ar    1  UNL1       -0.2223
     23 C         144.9638  141.6150  157.5101 C.ar    1  UNL1        0.1989
     24 N         144.3837  140.2369  157.6293 N.ar    1  UNL1       -0.2223
     25 C         143.6753  139.8276  158.8865 C.ar    1  UNL1        0.1052
     26 N         142.7094  141.3979  165.1173 N.pl3   1  UNL1       -0.3131
     27 H         142.8639  140.8803  165.9404 H       1  UNL1        0.1485
     28 C         142.7637  142.8965  165.1525 C.3     1  UNL1        0.1348
     29 C         141.7309  143.7018  164.4212 C.ar    1  UNL1        0.0788
     30 C         140.3545  143.8563  164.9969 C.ar    1  UNL1        0.0165
     31 C         139.3216  144.6616  164.2655 C.ar    1  UNL1        0.0029
     32 C         139.6653  145.3123  162.9585 C.ar    1  UNL1        0.0207
     33 C         141.0418  145.1578  162.3828 C.ar    1  UNL1        0.0985
     34 N         142.0746  144.3526  163.1141 N.ar    1  UNL1       -0.2464
@<TRIPOS>BOND
     1    17    18    1
     2    18    19    1
     3    18    11    1
     4    11    12   ar
     5    12    13   ar
     6    13    14   ar
     7    14     1    1
     8     1     2   ar
     9     2     3   ar
    10     3     4   ar
    11     4     5   ar
    12     5     6   ar
    13     6     7   ar
    14     7    20    1
    15    20    21   ar
    16    21    22   ar
    17    22    23   ar
    18    23    24   ar
    19    24    25   ar
    20     7     8   ar
    21     8     9   ar
    22     9    26    1
    23    26    28    1
    24    28    29    1
    25    29    30   ar
    26    30    31   ar
    27    31    32   ar
    28    32    33   ar
    29    33    34   ar
    30     9    10   ar
    31    14    15   ar
    32    15    16   ar
    33    16    11   ar
    34    10     1   ar
    35    10     5   ar
    36    25    20   ar
    37    34    29   ar
    38    26    27    1
@<TRIPOS>MOLECULE
*****
 34 38 0 0 0
SMALL
GASTEIGER

@<TRIPOS>ATOM
      1 C         139.0125  141.8182  164.5202 C.ar    1  UNL1        0.0041
      2 C         137.9991  142.9159  164.3860 C.ar    1  UNL1        0.0002
      3 C         137.4606  143.2782  163.0337 C.ar    1  UNL1        0.0015
      4 C         137.9356  142.5429  161.8157 C.ar    1  UNL1        0.0192
      5 C         138.9489  141.4452  161.9499 C.ar    1  UNL1        0.0856
      6 N         139.4239  140.7098  160.7318 N.ar    1  UNL1       -0.2264
      7 C         140.4373  139.6121  160.8660 C.ar    1  UNL1        0.1666
      8 N         140.9758  139.2497  162.2184 N.ar    1  UNL1       -0.2120
      9 C         140.5009  139.9851  163.4364 C.ar    1  UNL1        0.1318
     10 C         139.4874  141.0829  163.3022 C.ar    1  UNL1        0.0491
     11 C         140.6281  140.7311  168.5772 C.ar    1  UNL1        0.0479
     12 C         139.5454  139.9008  167.9539 C.ar    1  UNL1        0.0145
     13 C         139.0069  140.2632  166.6016 C.ar    1  UNL1        0.0013
     14 C         139.5510  141.4558  165.8726 C.ar    1  UNL1        0.0002
     15 C         140.6337  142.2861  166.4958 C.ar    1  UNL1        0.0013
     16 C         141.1722  141.9238  167.8481 C.ar    1  UNL1        0.0145
     17 C         140.7676  141.1681  171.1343 C.3     1  UNL1        0.1122
     18 N         141.1666  140.3688  169.9294 N.pl3   1  UNL1       -0.3041
     19 C         142.1041  139.2071  170.0768 C.3     1  UNL1        0.1122
     20 C         140.9122  138.8768  159.6480 C.ar    1  UNL1        0.0741
     21 C         139.9339  138.4803  158.5823 C.ar    1  UNL1        0.1052
     22 N         140.4088  137.7450  157.3642 N.ar    1  UNL1       -0.2223
     23 C         141.8620  137.4060  157.2118 C.ar    1  UNL1        0.1989
     24 N         142.8404  137.8024  158.2776 N.ar    1  UNL1       -0.2223
     25 C         142.3655  138.5378  159.4956 C.ar    1  UNL1        0.1052
     26 N         141.0393  139.6228  164.7887 N.pl3   1  UNL1       -0.3131
     27 H         140.4278  139.5388  165.5557 H       1  UNL1        0.1485
     28 C         142.5095  139.3884  164.9724 C.3     1  UNL1        0.1348
     29 C         143.4979  140.4054  164.4840 C.ar    1  UNL1        0.0788
     30 C         143.7531  141.6479  165.2845 C.ar    1  UNL1        0.0165
     31 C         144.7416  142.6650  164.7960 C.ar    1  UNL1        0.0029
     32 C         145.4748  142.4395  163.5070 C.ar    1  UNL1        0.0207
     33 C         145.2196  141.1968  162.7065 C.ar    1  UNL1        0.0985
     34 N         144.2312  140.1798  163.1950 N.ar    1  UNL1       -0.2464
@<TRIPOS>BOND
     1    17    18    1
     2    18    19    1
     3    18    11    1
     4    11    12   ar
     5    12    13   ar
     6    13    14   ar
     7    14     1    1
     8     1     2   ar
     9     2     3   ar
    10     3     4   ar
    11     4     5   ar
    12     5     6   ar
    13     6     7   ar
    14     7    20    1
    15    20    21   ar
    16    21    22   ar
    17    22    23   ar
    18    23    24   ar
    19    24    25   ar
    20     7     8   ar
    21     8     9   ar
    22     9    26    1
    23    26    28    1
    24    28    29    1
    25    29    30   ar
    26    30    31   ar
    27    31    32   ar
    28    32    33   ar
    29    33    34   ar
    30     9    10   ar
    31    14    15   ar
    32    15    16   ar
    33    16    11   ar
    34    10     1   ar
    35    10     5   ar
    36    25    20   ar
    37    34    29   ar
    38    26    27    1
@<TRIPOS>MOLECULE
*****
 34 38 0 0 0
SMALL
GASTEIGER

@<TRIPOS>ATOM
      1 C         139.1344  141.3555  161.9324 C.ar    1  UNL1        0.0041
      2 C         138.1622  142.4760  161.7103 C.ar    1  UNL1        0.0002
      3 C         137.6414  143.2596  162.8785 C.ar    1  UNL1        0.0015
      4 C         138.0929  142.9228  164.2688 C.ar    1  UNL1        0.0192
      5 C         139.0651  141.8023  164.4908 C.ar    1  UNL1        0.0856
      6 N         139.5166  141.4655  165.8810 N.ar    1  UNL1       -0.2264
      7 C         140.4888  140.3451  166.1031 C.ar    1  UNL1        0.1666
      8 N         141.0095  139.5613  164.9348 N.ar    1  UNL1       -0.2120
      9 C         140.5581  139.8982  163.5446 C.ar    1  UNL1        0.1318
     10 C         139.5858  141.0187  163.3226 C.ar    1  UNL1        0.0491
     11 C         140.6967  139.0045  158.4278 C.ar    1  UNL1        0.0479
     12 C         139.5255  138.4921  159.2124 C.ar    1  UNL1        0.0145
     13 C         139.0047  139.2758  160.3806 C.ar    1  UNL1        0.0013
     14 C         139.6551  140.5718  160.7642 C.ar    1  UNL1        0.0002
     15 C         140.8264  141.0842  159.9795 C.ar    1  UNL1        0.0013
     16 C         141.3471  140.3006  158.8114 C.ar    1  UNL1        0.0145
     17 C         142.6835  137.9227  157.1502 C.3     1  UNL1        0.1122
     18 N         141.2175  138.2209  157.2596 N.pl3   1  UNL1       -0.3041
     19 C         140.2723  137.7354  156.2009 C.3     1  UNL1        0.1122
     20 C         140.9402  140.0082  167.4933 C.ar    1  UNL1        0.0741
     21 C         139.9624  140.0494  168.6300 C.ar    1  UNL1        0.1052
     22 N         140.4139  139.7125  170.0202 N.ar    1  UNL1       -0.2223
     23 C         141.8432  139.3346  170.2737 C.ar    1  UNL1        0.1989
     24 N         142.8210  139.2934  169.1370 N.ar    1  UNL1       -0.2223
     25 C         142.3696  139.6303  167.7468 C.ar    1  UNL1        0.1052
     26 N         141.0788  139.1145  162.3764 N.pl3   1  UNL1       -0.3131
     27 H         140.4696  138.8519  161.6490 H       1  UNL1        0.1485
     28 C         142.5278  138.7310  162.3165 C.3     1  UNL1        0.1348
     29 C         143.5867  139.7533  162.6052 C.ar    1  UNL1        0.0788
     30 C         144.3854  139.6686  163.8721 C.ar    1  UNL1        0.0165
     31 C         145.4444  140.6909  164.1609 C.ar    1  UNL1        0.0029
     32 C         145.7047  141.7980  163.1828 C.ar    1  UNL1        0.0207
     33 C         144.9060  141.8827  161.9159 C.ar    1  UNL1        0.0985
     34 N         143.8470  140.8604  161.6271 N.ar    1  UNL1       -0.2464
@<TRIPOS>BOND
     1    17    18    1
     2    18    19    1
     3    18    11    1
     4    11    12   ar
     5    12    13   ar
     6    13    14   ar
     7    14     1    1
     8     1     2   ar
     9     2     3   ar
    10     3     4   ar
    11     4     5   ar
    12     5     6   ar
    13     6     7   ar
    14     7    20    1
    15    20    21   ar
    16    21    22   ar
    17    22    23   ar
    18    23    24   ar
    19    24    25   ar
    20     7     8   ar
    21     8     9   ar
    22     9    26    1
    23    26    28    1
    24    28    29    1
    25    29    30   ar
    26    30    31   ar
    27    31    32   ar
    28    32    33   ar
    29    33    34   ar
    30     9    10   ar
    31    14    15   ar
    32    15    16   ar
    33    16    11   ar
    34    10     1   ar
    35    10     5   ar
    36    25    20   ar
    37    34    29   ar
    38    26    27    1
@<TRIPOS>MOLECULE
*****
 34 38 0 0 0
SMALL
GASTEIGER

@<TRIPOS>ATOM
      1 C         141.1676  143.5115  164.0120 C.ar    1  UNL1        0.0041
      2 C         140.4145  144.8088  164.0063 C.ar    1  UNL1        0.0002
      3 C         140.3671  145.6429  162.7606 C.ar    1  UNL1        0.0015
      4 C         141.0728  145.1799  161.5206 C.ar    1  UNL1        0.0192
      5 C         141.8259  143.8827  161.5263 C.ar    1  UNL1        0.0856
      6 N         142.5316  143.4196  160.2863 N.ar    1  UNL1       -0.2264
      7 C         143.2847  142.1224  160.2920 C.ar    1  UNL1        0.1666
      8 N         143.3321  141.2882  161.5378 N.ar    1  UNL1       -0.2120
      9 C         142.6264  141.7512  162.7778 C.ar    1  UNL1        0.1318
     10 C         141.8733  143.0485  162.7720 C.ar    1  UNL1        0.0491
     11 C         141.3098  141.0088  167.7493 C.ar    1  UNL1        0.0479
     12 C         142.4801  141.8710  167.3790 C.ar    1  UNL1        0.0145
     13 C         142.4327  142.7053  166.1333 C.ar    1  UNL1        0.0013
     14 C         141.2150  142.6773  165.2578 C.ar    1  UNL1        0.0002
     15 C         140.0447  141.8151  165.6280 C.ar    1  UNL1        0.0013
     16 C         140.0921  140.9809  166.8737 C.ar    1  UNL1        0.0145
     17 C         142.5471  139.3035  169.2694 C.3     1  UNL1        0.1122
     18 N         141.3572  140.1746  168.9949 N.pl3   1  UNL1       -0.3041
     19 C         140.2147  140.2114  169.9662 C.3     1  UNL1        0.1122
     20 C         143.9904  141.6594  159.0520 C.ar    1  UNL1        0.0741
     21 C         143.7450  140.2782  158.5209 C.ar    1  UNL1        0.1052
     22 N         144.4507  139.8152  157.2809 N.ar    1  UNL1       -0.2223
     23 C         145.4018  140.7333  156.5721 C.ar    1  UNL1        0.1989
     24 N         145.6471  142.1146  157.1032 N.ar    1  UNL1       -0.2223
     25 C         144.9414  142.5776  158.3432 C.ar    1  UNL1        0.1052
     26 N         142.6738  140.9171  164.0235 N.pl3   1  UNL1       -0.3131
     27 H         142.7945  141.3482  164.9003 H       1  UNL1        0.1485
     28 C         142.5372  139.4260  163.9334 C.3     1  UNL1        0.1348
     29 C         141.2112  138.8135  163.5919 C.ar    1  UNL1        0.0788
     30 C         140.3475  138.2420  164.6769 C.ar    1  UNL1        0.0165
     31 C         139.0214  137.6296  164.3355 C.ar    1  UNL1        0.0029
     32 C         138.5591  137.5887  162.9091 C.ar    1  UNL1        0.0207
     33 C         139.4229  138.1603  161.8241 C.ar    1  UNL1        0.0985
     34 N         140.7490  138.7727  162.1655 N.ar    1  UNL1       -0.2464
@<TRIPOS>BOND
     1    17    18    1
     2    18    19    1
     3    18    11    1
     4    11    12   ar
     5    12    13   ar
     6    13    14   ar
     7    14     1    1
     8     1     2   ar
     9     2     3   ar
    10     3     4   ar
    11     4     5   ar
    12     5     6   ar
    13     6     7   ar
    14     7    20    1
    15    20    21   ar
    16    21    22   ar
    17    22    23   ar
    18    23    24   ar
    19    24    25   ar
    20     7     8   ar
    21     8     9   ar
    22     9    26    1
    23    26    28    1
    24    28    29    1
    25    29    30   ar
    26    30    31   ar
    27    31    32   ar
    28    32    33   ar
    29    33    34   ar
    30     9    10   ar
    31    14    15   ar
    32    15    16   ar
    33    16    11   ar
    34    10     1   ar
    35    10     5   ar
    36    25    20   ar
    37    34    29   ar
    38    26    27    1
@<TRIPOS>MOLECULE
*****
 34 38 0 0 0
SMALL
GASTEIGER

@<TRIPOS>ATOM
      1 C         139.3091  139.8312  162.8456 C.ar    1  UNL1        0.0041
      2 C         138.9146  138.4269  162.4961 C.ar    1  UNL1        0.0002
      3 C         138.7540  137.4015  163.5790 C.ar    1  UNL1        0.0015
      4 C         138.9878  137.7804  165.0114 C.ar    1  UNL1        0.0192
      5 C         139.3823  139.1847  165.3609 C.ar    1  UNL1        0.0856
      6 N         139.6161  139.5636  166.7933 N.ar    1  UNL1       -0.2264
      7 C         140.0106  140.9680  167.1428 C.ar    1  UNL1        0.1666
      8 N         140.1712  141.9935  166.0599 N.ar    1  UNL1       -0.2120
      9 C         139.9374  141.6146  164.6275 C.ar    1  UNL1        0.1318
     10 C         139.5429  140.2101  164.2780 C.ar    1  UNL1        0.0491
     11 C         139.7910  142.9077  159.5970 C.ar    1  UNL1        0.0479
     12 C         140.9340  142.0018  159.9475 C.ar    1  UNL1        0.0145
     13 C         140.7733  140.9763  161.0304 C.ar    1  UNL1        0.0013
     14 C         139.4698  140.8568  161.7627 C.ar    1  UNL1        0.0002
     15 C         138.3268  141.7627  161.4122 C.ar    1  UNL1        0.0013
     16 C         138.4874  142.7882  160.3294 C.ar    1  UNL1        0.0145
     17 C         140.4094  145.3200  158.8565 C.3     1  UNL1        0.1122
     18 N         139.9516  143.9332  158.5142 N.pl3   1  UNL1       -0.3041
     19 C         139.6545  143.5719  157.0890 C.3     1  UNL1        0.1122
     20 C         140.2444  141.3469  168.5752 C.ar    1  UNL1        0.0741
     21 C         140.6783  142.7404  168.9211 C.ar    1  UNL1        0.1052
     22 N         140.9121  143.1193  170.3535 N.ar    1  UNL1       -0.2223
     23 C         140.7120  142.1047  171.4400 C.ar    1  UNL1        0.1989
     24 N         140.2781  140.7110  171.0941 N.ar    1  UNL1       -0.2223
     25 C         140.0443  140.3321  169.6617 C.ar    1  UNL1        0.1052
     26 N         140.0981  142.6400  163.5446 N.pl3   1  UNL1       -0.3131
     27 H         139.4378  142.6945  162.8164 H       1  UNL1        0.1485
     28 C         141.2648  143.5824  163.5712 C.3     1  UNL1        0.1348
     29 C         142.6585  143.0557  163.3977 C.ar    1  UNL1        0.0788
     30 C         143.3303  142.3267  164.5234 C.ar    1  UNL1        0.0165
     31 C         144.7240  141.8000  164.3498 C.ar    1  UNL1        0.0029
     32 C         145.4459  142.0022  163.0506 C.ar    1  UNL1        0.0207
     33 C         144.7740  142.7313  161.9249 C.ar    1  UNL1        0.0985
     34 N         143.3803  143.2580  162.0985 N.ar    1  UNL1       -0.2464
@<TRIPOS>BOND
     1    17    18    1
     2    18    19    1
     3    18    11    1
     4    11    12   ar
     5    12    13   ar
     6    13    14   ar
     7    14     1    1
     8     1     2   ar
     9     2     3   ar
    10     3     4   ar
    11     4     5   ar
    12     5     6   ar
    13     6     7   ar
    14     7    20    1
    15    20    21   ar
    16    21    22   ar
    17    22    23   ar
    18    23    24   ar
    19    24    25   ar
    20     7     8   ar
    21     8     9   ar
    22     9    26    1
    23    26    28    1
    24    28    29    1
    25    29    30   ar
    26    30    31   ar
    27    31    32   ar
    28    32    33   ar
    29    33    34   ar
    30     9    10   ar
    31    14    15   ar
    32    15    16   ar
    33    16    11   ar
    34    10     1   ar
    35    10     5   ar
    36    25    20   ar
    37    34    29   ar
    38    26    27    1
@<TRIPOS>MOLECULE
*****
 34 38 0 0 0
SMALL
GASTEIGER

@<TRIPOS>ATOM
      1 C         140.8667  138.6826  161.3968 C.ar    1  UNL1        0.0041
      2 C         142.1809  138.0015  161.1539 C.ar    1  UNL1        0.0002
      3 C         142.7331  137.9117  159.7622 C.ar    1  UNL1        0.0015
      4 C         141.9711  138.5029  158.6133 C.ar    1  UNL1        0.0192
      5 C         140.6569  139.1839  158.8562 C.ar    1  UNL1        0.0856
      6 N         139.8949  139.7750  157.7073 N.ar    1  UNL1       -0.2264
      7 C         138.5807  140.4561  157.9502 C.ar    1  UNL1        0.1666
      8 N         138.0284  140.5459  159.3420 N.ar    1  UNL1       -0.2120
      9 C         138.7904  139.9548  160.4908 C.ar    1  UNL1        0.1318
     10 C         140.1047  139.2737  160.2479 C.ar    1  UNL1        0.0491
     11 C         139.2098  138.9522  165.5720 C.ar    1  UNL1        0.0479
     12 C         140.0711  140.0562  165.0342 C.ar    1  UNL1        0.0145
     13 C         140.6234  139.9663  163.6424 C.ar    1  UNL1        0.0013
     14 C         140.3144  138.7724  162.7886 C.ar    1  UNL1        0.0002
     15 C         139.4531  137.6684  163.3264 C.ar    1  UNL1        0.0013
     16 C         138.9008  137.7582  164.7181 C.ar    1  UNL1        0.0145
     17 C         137.4204  138.2772  167.3305 C.3     1  UNL1        0.1122
     18 N         138.6575  139.0420  166.9637 N.pl3   1  UNL1       -0.3041
     19 C         139.3424  139.8966  167.9887 C.3     1  UNL1        0.1122
     20 C         137.8187  141.0472  156.8013 C.ar    1  UNL1        0.0741
     21 C         137.3788  142.4804  156.8513 C.ar    1  UNL1        0.1052
     22 N         136.6169  143.0715  155.7024 N.ar    1  UNL1       -0.2223
     23 C         136.2948  142.2296  154.5036 C.ar    1  UNL1        0.1989
     24 N         136.7346  140.7963  154.4536 N.ar    1  UNL1       -0.2223
     25 C         137.4966  140.2052  155.6024 C.ar    1  UNL1        0.1052
     26 N         138.2382  140.0446  161.8825 N.pl3   1  UNL1       -0.3131
     27 H         138.4691  139.3578  162.5490 H       1  UNL1        0.1485
     28 C         137.3341  141.1810  162.2588 C.3     1  UNL1        0.1348
     29 C         137.9167  142.4652  162.7700 C.ar    1  UNL1        0.0788
     30 C         137.8377  142.7955  164.2310 C.ar    1  UNL1        0.0165
     31 C         138.4203  144.0798  164.7422 C.ar    1  UNL1        0.0029
     32 C         139.0817  145.0338  163.7923 C.ar    1  UNL1        0.0207
     33 C         139.1607  144.7035  162.3312 C.ar    1  UNL1        0.0985
     34 N         138.5781  143.4192  161.8201 N.ar    1  UNL1       -0.2464
@<TRIPOS>BOND
     1    17    18    1
     2    18    19    1
     3    18    11    1
     4    11    12   ar
     5    12    13   ar
     6    13    14   ar
     7    14     1    1
     8     1     2   ar
     9     2     3   ar
    10     3     4   ar
    11     4     5   ar
    12     5     6   ar
    13     6     7   ar
    14     7    20    1
    15    20    21   ar
    16    21    22   ar
    17    22    23   ar
    18    23    24   ar
    19    24    25   ar
    20     7     8   ar
    21     8     9   ar
    22     9    26    1
    23    26    28    1
    24    28    29    1
    25    29    30   ar
    26    30    31   ar
    27    31    32   ar
    28    32    33   ar
    29    33    34   ar
    30     9    10   ar
    31    14    15   ar
    32    15    16   ar
    33    16    11   ar
    34    10     1   ar
    35    10     5   ar
    36    25    20   ar
    37    34    29   ar
    38    26    27    1
@<TRIPOS>MOLECULE
*****
 34 38 0 0 0
SMALL
GASTEIGER

@<TRIPOS>ATOM
      1 C         140.8952  139.2800  162.8711 C.ar    1  UNL1        0.0041
      2 C         139.8732  138.1839  162.8086 C.ar    1  UNL1        0.0002
      3 C         139.1259  137.7839  164.0462 C.ar    1  UNL1        0.0015
      4 C         139.4007  138.4800  165.3461 C.ar    1  UNL1        0.0192
      5 C         140.4226  139.5762  165.4086 C.ar    1  UNL1        0.0856
      6 N         140.6974  140.2723  166.7086 N.ar    1  UNL1       -0.2264
      7 C         141.7193  141.3684  166.7710 C.ar    1  UNL1        0.1666
      8 N         142.4667  141.7685  165.5334 N.ar    1  UNL1       -0.2120
      9 C         142.1920  141.0724  164.2335 C.ar    1  UNL1        0.1318
     10 C         141.1699  139.9762  164.1711 C.ar    1  UNL1        0.0491
     11 C         143.1371  140.4802  159.1584 C.ar    1  UNL1        0.0479
     12 C         143.7122  139.4462  160.0805 C.ar    1  UNL1        0.0145
     13 C         142.9648  139.0462  161.3180 C.ar    1  UNL1        0.0013
     14 C         141.6425  139.6801  161.6335 C.ar    1  UNL1        0.0002
     15 C         141.0675  140.7141  160.7115 C.ar    1  UNL1        0.0013
     16 C         141.8148  141.1142  159.4740 C.ar    1  UNL1        0.0145
     17 C         144.6444  142.1731  157.8888 C.3     1  UNL1        0.1122
     18 N         143.8844  140.8803  157.9209 N.pl3   1  UNL1       -0.3041
     19 C         143.8716  139.9876  156.7155 C.3     1  UNL1        0.1122
     20 C         141.9941  142.0646  168.0710 C.ar    1  UNL1        0.0741
     21 C         140.8677  142.6885  168.8403 C.ar    1  UNL1        0.1052
     22 N         141.1424  143.3846  170.1403 N.ar    1  UNL1       -0.2223
     23 C         142.5435  143.4569  170.6709 C.ar    1  UNL1        0.1989
     24 N         143.6700  142.8330  169.9015 N.ar    1  UNL1       -0.2223
     25 C         143.3953  142.1368  168.6016 C.ar    1  UNL1        0.1052
     26 N         142.9392  141.4724  162.9959 N.pl3   1  UNL1       -0.3131
     27 H         143.2010  140.7897  162.3367 H       1  UNL1        0.1485
     28 C         143.2877  142.9127  162.7628 C.3     1  UNL1        0.1348
     29 C         142.2377  143.8701  162.2825 C.ar    1  UNL1        0.0788
     30 C         141.2085  144.3959  163.2386 C.ar    1  UNL1        0.0165
     31 C         140.1584  145.3534  162.7583 C.ar    1  UNL1        0.0029
     32 C         140.1375  145.7850  161.3219 C.ar    1  UNL1        0.0207
     33 C         141.1668  145.2591  160.3657 C.ar    1  UNL1        0.0985
     34 N         142.2168  144.3016  160.8461 N.ar    1  UNL1       -0.2464
@<TRIPOS>BOND
     1    17    18    1
     2    18    19    1
     3    18    11    1
     4    11    12   ar
     5    12    13   ar
     6    13    14   ar
     7    14     1    1
     8     1     2   ar
     9     2     3   ar
    10     3     4   ar
    11     4     5   ar
    12     5     6   ar
    13     6     7   ar
    14     7    20    1
    15    20    21   ar
    16    21    22   ar
    17    22    23   ar
    18    23    24   ar
    19    24    25   ar
    20     7     8   ar
    21     8     9   ar
    22     9    26    1
    23    26    28    1
    24    28    29    1
    25    29    30   ar
    26    30    31   ar
    27    31    32   ar
    28    32    33   ar
    29    33    34   ar
    30     9    10   ar
    31    14    15   ar
    32    15    16   ar
    33    16    11   ar
    34    10     1   ar
    35    10     5   ar
    36    25    20   ar
    37    34    29   ar
    38    26    27    1
