@<TRIPOS>MOLECULE
*****
 45 50 0 0 0
SMALL
GASTEIGER

@<TRIPOS>ATOM
      1 C         144.3209  139.7846  163.2456 C.3     1  UNL1        0.0700
      2 C         143.4481  139.4463  162.0735 C.3     1  UNL1        0.0193
      3 C         142.2015  138.6368  162.2756 C.3     1  UNL1        0.0286
      4 C         141.8277  138.1657  163.6498 C.3     1  UNL1        0.0932
      5 C         142.7005  138.5040  164.8218 C.3     1  UNL1        0.0286
      6 C         143.9471  139.3135  164.6197 C.3     1  UNL1        0.0193
      7 O         142.5204  138.6066  163.5885 O.3     1  UNL1       -0.3572
      8 C         143.6476  139.3385  163.4058 C.3     1  UNL1        0.1562
      9 N         145.5674  140.5940  163.0435 N.3     1  UNL1       -0.2926
     10 H         146.3144  140.1148  163.5463 H       1  UNL1        0.1236
     11 C         145.6072  142.0302  163.4747 C.3     1  UNL1        0.1152
     12 O         140.4926  145.5614  158.7713 O.2     1  UNL1       -0.2707
     13 C         140.9919  145.2571  160.1526 C.2     1  UNL1        0.2718
     14 C         140.2855  145.8255  161.3475 C.3     1  UNL1        0.2898
     15 O         140.7847  145.5212  162.7289 O.3     1  UNL1       -0.4628
     16 C         141.9903  144.6485  162.9154 C.ar    1  UNL1        0.1708
     17 C         142.4896  144.3442  164.2967 C.ar    1  UNL1        0.0411
     18 C         143.6952  143.4714  164.4832 C.ar    1  UNL1        0.0193
     19 C         144.4016  142.9030  163.2882 C.ar    1  UNL1        0.0765
     20 N         143.9024  143.2073  161.9068 N.ar    1  UNL1       -0.2304
     21 C         142.6967  144.0800  161.7204 C.ar    1  UNL1        0.1682
     22 N         142.1975  144.3843  160.3391 N.am    1  UNL1       -0.2639
     23 H         142.6611  144.0113  159.5548 H       1  UNL1        0.1565
     24 C         140.5812  137.3562  163.8518 C.3     1  UNL1        0.0320
     25 C         139.3299  138.0174  164.3490 C.3     1  UNL1        0.0327
     26 C         138.7482  139.1802  163.6011 C.ar    1  UNL1        0.0261
     27 C         137.9999  138.9504  162.3215 C.ar    1  UNL1        0.1566
     28 F         137.8334  137.5577  161.7898 F       1  UNL1       -0.2028
     29 C         137.4181  140.1132  161.5736 C.ar    1  UNL1        0.1281
     30 N         137.5846  141.5059  162.1053 N.ar    1  UNL1       -0.2400
     31 C         138.3328  141.7358  163.3848 C.ar    1  UNL1        0.0990
     32 C         138.4993  143.1285  163.9165 C.ar    1  UNL1        0.0254
     33 C         139.2476  143.3584  165.1961 C.ar    1  UNL1        0.0593
     34 C         139.8293  142.1955  165.9439 C.ar    1  UNL1        0.2249
     35 N         139.6629  140.8028  165.4123 N.ar    1  UNL1       -0.2104
     36 C         138.9146  140.5730  164.1327 C.ar    1  UNL1        0.1002
     37 O         140.5776  142.4254  167.2235 O.3     1  UNL1       -0.4600
     38 C         141.8770  141.7179  167.4699 C.3     1  UNL1        0.2132
     39 C         141.9053  140.4690  168.3003 C.3     1  UNL1        0.1195
     40 C         141.1348  140.4054  169.5857 C.3     1  UNL1        0.2988
     41 F         140.0361  139.6576  168.8901 F       1  UNL1       -0.1982
     42 F         142.2334  141.1532  170.2812 F       1  UNL1       -0.1982
     43 C         140.3643  140.3418  170.8711 C.2     1  UNL1        0.1110
     44 O         140.8180  141.1393  172.0577 O.co2   1  UNL1       -0.5439
     45 O         139.1400  139.4807  170.9699 O.co2   1  UNL1       -0.5439
@<TRIPOS>UNITY_ATOM_ATTR
44 1
charge -1
@<TRIPOS>BOND
     1    12    13    2
     2    13    14    1
     3    14    15    1
     4    15    16    1
     5    16    17   ar
     6    17    18   ar
     7    18    19   ar
     8    19    11    1
     9    11     9    1
    10     9     1    1
    11     1     2    1
    12     2     3    1
    13     3     4    1
    14     4    24    1
    15    24    25    1
    16    25    26    1
    17    26    27   ar
    18    27    28    1
    19    27    29   ar
    20    29    30   ar
    21    30    31   ar
    22    31    32   ar
    23    32    33   ar
    24    33    34   ar
    25    34    37    1
    26    37    38    1
    27    38    39    1
    28    39    40    1
    29    40    41    1
    30    40    42    1
    31    40    43    1
    32    43    44   ar
    33    43    45   ar
    34    34    35   ar
    35    35    36   ar
    36     4     5    1
    37     5     6    1
    38     4     7    1
    39     7     8    1
    40    19    20   ar
    41    20    21   ar
    42    21    22    1
    43    22    13   am
    44    21    16   ar
    45     6     1    1
    46     8     1    1
    47    36    26   ar
    48    36    31   ar
    49     9    10    1
    50    22    23    1
@<TRIPOS>MOLECULE
*****
 45 50 0 0 0
SMALL
GASTEIGER

@<TRIPOS>ATOM
      1 C         137.9089  139.9746  162.5752 C.3     1  UNL1        0.0700
      2 C         138.0881  140.1518  164.0539 C.3     1  UNL1        0.0193
      3 C         138.0829  141.5281  164.6503 C.3     1  UNL1        0.0286
      4 C         137.8985  142.7272  163.7681 C.3     1  UNL1        0.0932
      5 C         137.7193  142.5500  162.2894 C.3     1  UNL1        0.0286
      6 C         137.7245  141.1736  161.6930 C.3     1  UNL1        0.0193
      7 O         137.8943  141.9930  163.3955 O.3     1  UNL1       -0.3572
      8 C         137.8990  140.7485  162.8561 C.3     1  UNL1        0.1562
      9 N         137.9141  138.5983  161.9787 N.3     1  UNL1       -0.2926
     10 H         137.6833  137.9502  162.7317 H       1  UNL1        0.1236
     11 C         139.1540  138.0716  161.3188 C.3     1  UNL1        0.1152
     12 O         144.0471  137.9207  167.3838 O.2     1  UNL1       -0.2707
     13 C         143.7631  138.2666  165.9521 C.2     1  UNL1        0.2718
     14 C         144.8261  138.9080  165.1104 C.3     1  UNL1        0.2898
     15 O         144.5421  139.2539  163.6787 O.3     1  UNL1       -0.4628
     16 C         143.1951  138.9583  163.0887 C.ar    1  UNL1        0.1708
     17 C         142.9111  139.3042  161.6570 C.ar    1  UNL1        0.0411
     18 C         141.5641  139.0086  161.0671 C.ar    1  UNL1        0.0193
     19 C         140.5010  138.3672  161.9088 C.ar    1  UNL1        0.0765
     20 N         140.7850  138.0213  163.3404 N.ar    1  UNL1       -0.2304
     21 C         142.1321  138.3169  163.9304 C.ar    1  UNL1        0.1682
     22 N         142.4161  137.9710  165.3621 N.am    1  UNL1       -0.2639
     23 H         141.7183  137.5500  165.9145 H       1  UNL1        0.1565
     24 C         137.8932  144.1035  164.3646 C.3     1  UNL1        0.0320
     25 C         139.1892  144.8098  164.6322 C.3     1  UNL1        0.0327
     26 C         140.3258  144.6851  163.6614 C.ar    1  UNL1        0.0261
     27 C         140.2278  145.3209  162.3063 C.ar    1  UNL1        0.1566
     28 F         138.9933  146.0813  161.9221 F       1  UNL1       -0.2028
     29 C         141.3644  145.1961  161.3354 C.ar    1  UNL1        0.1281
     30 N         142.5990  144.4357  161.7196 N.ar    1  UNL1       -0.2400
     31 C         142.6969  143.8000  163.0747 C.ar    1  UNL1        0.0990
     32 C         143.9315  143.0395  163.4589 C.ar    1  UNL1        0.0254
     33 C         144.0294  142.4037  164.8140 C.ar    1  UNL1        0.0593
     34 C         142.8928  142.5285  165.7848 C.ar    1  UNL1        0.2249
     35 N         141.6583  143.2889  165.4006 N.ar    1  UNL1       -0.2104
     36 C         141.5603  143.9247  164.0456 C.ar    1  UNL1        0.1002
     37 O         142.9908  141.8927  167.1399 O.3     1  UNL1       -0.4600
     38 C         141.9272  140.9405  167.6002 C.3     1  UNL1        0.2132
     39 C         140.5688  141.4564  167.9729 C.3     1  UNL1        0.1195
     40 C         140.3781  142.2069  169.2576 C.3     1  UNL1        0.2988
     41 F         140.3933  140.9127  170.0158 F       1  UNL1       -0.1982
     42 F         140.3629  143.5010  168.4993 F       1  UNL1       -0.1982
     43 C         140.1873  142.9573  170.5423 C.2     1  UNL1        0.1110
     44 O         139.7225  144.3832  170.5160 O.co2   1  UNL1       -0.5439
     45 O         140.4615  142.2818  171.8533 O.co2   1  UNL1       -0.5439
@<TRIPOS>UNITY_ATOM_ATTR
44 1
charge -1
@<TRIPOS>BOND
     1    12    13    2
     2    13    14    1
     3    14    15    1
     4    15    16    1
     5    16    17   ar
     6    17    18   ar
     7    18    19   ar
     8    19    11    1
     9    11     9    1
    10     9     1    1
    11     1     2    1
    12     2     3    1
    13     3     4    1
    14     4    24    1
    15    24    25    1
    16    25    26    1
    17    26    27   ar
    18    27    28    1
    19    27    29   ar
    20    29    30   ar
    21    30    31   ar
    22    31    32   ar
    23    32    33   ar
    24    33    34   ar
    25    34    37    1
    26    37    38    1
    27    38    39    1
    28    39    40    1
    29    40    41    1
    30    40    42    1
    31    40    43    1
    32    43    44   ar
    33    43    45   ar
    34    34    35   ar
    35    35    36   ar
    36     4     5    1
    37     5     6    1
    38     4     7    1
    39     7     8    1
    40    19    20   ar
    41    20    21   ar
    42    21    22    1
    43    22    13   am
    44    21    16   ar
    45     6     1    1
    46     8     1    1
    47    36    26   ar
    48    36    31   ar
    49     9    10    1
    50    22    23    1
@<TRIPOS>MOLECULE
*****
 45 50 0 0 0
SMALL
GASTEIGER

@<TRIPOS>ATOM
      1 C         138.3809  142.9693  164.4437 C.3     1  UNL1        0.0700
      2 C         139.2949  142.4476  165.5126 C.3     1  UNL1        0.0193
      3 C         139.3628  140.9747  165.7881 C.3     1  UNL1        0.0286
      4 C         138.5169  140.0234  164.9947 C.3     1  UNL1        0.0932
      5 C         137.6029  140.5451  163.9258 C.3     1  UNL1        0.0286
      6 C         137.5350  142.0181  163.6503 C.3     1  UNL1        0.0193
      7 O         138.4455  140.8221  164.8076 O.3     1  UNL1       -0.3572
      8 C         138.3840  142.1539  164.5584 C.3     1  UNL1        0.1562
      9 N         138.3130  144.4422  164.1682 N.3     1  UNL1       -0.2926
     10 H         137.3260  144.6765  164.0612 H       1  UNL1        0.1236
     11 C         139.0257  145.0166  162.9798 C.3     1  UNL1        0.1152
     12 O         144.1610  140.7740  158.9328 O.2     1  UNL1       -0.2707
     13 C         143.8672  141.7924  159.9942 C.2     1  UNL1        0.2718
     14 C         144.9913  142.4151  160.7679 C.3     1  UNL1        0.2898
     15 O         144.6975  143.4335  161.8293 O.3     1  UNL1       -0.4628
     16 C         143.2795  143.8293  162.1169 C.ar    1  UNL1        0.1708
     17 C         142.9857  144.8477  163.1783 C.ar    1  UNL1        0.0411
     18 C         141.5678  145.2434  163.4659 C.ar    1  UNL1        0.0193
     19 C         140.4436  144.6208  162.6922 C.ar    1  UNL1        0.0765
     20 N         140.7374  143.6024  161.6308 N.ar    1  UNL1       -0.2304
     21 C         142.1554  143.2066  161.3432 C.ar    1  UNL1        0.1682
     22 N         142.4493  142.1882  160.2818 N.am    1  UNL1       -0.2639
     23 H         141.7115  141.7796  159.7740 H       1  UNL1        0.1565
     24 C         138.5849  138.5505  165.2702 C.3     1  UNL1        0.0320
     25 C         139.1756  137.6232  164.2499 C.3     1  UNL1        0.0327
     26 C         140.2419  138.1157  163.3170 C.ar    1  UNL1        0.0261
     27 C         139.9565  138.2379  161.8494 C.ar    1  UNL1        0.1566
     28 F         138.6048  137.8675  161.3149 F       1  UNL1       -0.2028
     29 C         141.0227  138.7305  160.9164 C.ar    1  UNL1        0.1281
     30 N         142.3744  139.1008  161.4510 N.ar    1  UNL1       -0.2400
     31 C         142.6599  138.9787  162.9184 C.ar    1  UNL1        0.0990
     32 C         144.0116  139.3490  163.4530 C.ar    1  UNL1        0.0254
     33 C         144.2970  139.2268  164.9205 C.ar    1  UNL1        0.0593
     34 C         143.2307  138.7343  165.8535 C.ar    1  UNL1        0.2249
     35 N         141.8790  138.3639  165.3190 N.ar    1  UNL1       -0.2104
     36 C         141.5936  138.4861  163.8515 C.ar    1  UNL1        0.1002
     37 O         143.5162  138.6121  167.3210 O.3     1  UNL1       -0.4600
     38 C         142.6822  139.3677  168.3127 C.3     1  UNL1        0.2132
     39 C         142.5537  140.8582  168.2035 C.3     1  UNL1        0.1195
     40 C         142.4512  141.6951  169.4441 C.3     1  UNL1        0.2988
     41 F         141.3276  142.4734  168.8263 F       1  UNL1       -0.1982
     42 F         143.5748  140.9168  170.0620 F       1  UNL1       -0.1982
     43 C         142.3487  142.5319  170.6848 C.2     1  UNL1        0.1110
     44 O         141.3726  142.1605  171.7614 O.co2   1  UNL1       -0.5439
     45 O         143.2223  143.7403  170.8487 O.co2   1  UNL1       -0.5439
@<TRIPOS>UNITY_ATOM_ATTR
44 1
charge -1
@<TRIPOS>BOND
     1    12    13    2
     2    13    14    1
     3    14    15    1
     4    15    16    1
     5    16    17   ar
     6    17    18   ar
     7    18    19   ar
     8    19    11    1
     9    11     9    1
    10     9     1    1
    11     1     2    1
    12     2     3    1
    13     3     4    1
    14     4    24    1
    15    24    25    1
    16    25    26    1
    17    26    27   ar
    18    27    28    1
    19    27    29   ar
    20    29    30   ar
    21    30    31   ar
    22    31    32   ar
    23    32    33   ar
    24    33    34   ar
    25    34    37    1
    26    37    38    1
    27    38    39    1
    28    39    40    1
    29    40    41    1
    30    40    42    1
    31    40    43    1
    32    43    44   ar
    33    43    45   ar
    34    34    35   ar
    35    35    36   ar
    36     4     5    1
    37     5     6    1
    38     4     7    1
    39     7     8    1
    40    19    20   ar
    41    20    21   ar
    42    21    22    1
    43    22    13   am
    44    21    16   ar
    45     6     1    1
    46     8     1    1
    47    36    26   ar
    48    36    31   ar
    49     9    10    1
    50    22    23    1
@<TRIPOS>MOLECULE
*****
 45 50 0 0 0
SMALL
GASTEIGER

@<TRIPOS>ATOM
      1 C         145.0361  141.1912  163.5645 C.3     1  UNL1        0.0700
      2 C         144.6599  141.3995  162.1275 C.3     1  UNL1        0.0193
      3 C         143.9400  140.3189  161.3764 C.3     1  UNL1        0.0286
      4 C         143.5963  139.0300  162.0624 C.3     1  UNL1        0.0932
      5 C         143.9725  138.8216  163.4995 C.3     1  UNL1        0.0286
      6 C         144.6924  139.9023  164.2505 C.3     1  UNL1        0.0193
      7 O         143.9913  139.5929  162.5151 O.3     1  UNL1       -0.3572
      8 C         144.6423  140.5700  163.1943 C.3     1  UNL1        0.1562
      9 N         145.7560  142.2717  164.3156 N.3     1  UNL1       -0.2926
     10 H         146.3547  141.8071  164.9983 H       1  UNL1        0.1236
     11 C         144.9764  143.3138  165.0614 C.3     1  UNL1        0.1152
     12 O         139.1804  146.6504  161.0584 O.2     1  UNL1       -0.2707
     13 C         139.6456  145.7089  162.1295 C.2     1  UNL1        0.2718
     14 C         138.6440  144.9381  162.9373 C.3     1  UNL1        0.2898
     15 O         139.1092  143.9966  164.0084 O.3     1  UNL1       -0.4628
     16 C         140.5760  143.8259  164.2717 C.ar    1  UNL1        0.1708
     17 C         141.0411  142.8844  165.3428 C.ar    1  UNL1        0.0411
     18 C         142.5079  142.7137  165.6060 C.ar    1  UNL1        0.0193
     19 C         143.5096  143.4845  164.7982 C.ar    1  UNL1        0.0765
     20 N         143.0444  144.4260  163.7271 N.ar    1  UNL1       -0.2304
     21 C         141.5776  144.5967  163.4639 C.ar    1  UNL1        0.1682
     22 N         141.1124  145.5382  162.3928 N.am    1  UNL1       -0.2639
     23 H         141.7698  146.0441  161.8626 H       1  UNL1        0.1565
     24 C         142.8764  137.9494  161.3114 C.3     1  UNL1        0.0320
     25 C         141.4691  137.5873  161.6834 C.3     1  UNL1        0.0327
     26 C         140.3489  138.5441  161.4011 C.ar    1  UNL1        0.0261
     27 C         139.9631  138.8502  159.9842 C.ar    1  UNL1        0.1566
     28 F         140.6975  138.1995  158.8496 F       1  UNL1       -0.2028
     29 C         138.8429  139.8070  159.7019 C.ar    1  UNL1        0.1281
     30 N         138.1085  140.4577  160.8365 N.ar    1  UNL1       -0.2400
     31 C         138.4942  140.1516  162.2533 C.ar    1  UNL1        0.0990
     32 C         137.7598  140.8024  163.3879 C.ar    1  UNL1        0.0254
     33 C         138.1457  140.4963  164.8048 C.ar    1  UNL1        0.0593
     34 C         139.2658  139.5395  165.0870 C.ar    1  UNL1        0.2249
     35 N         140.0002  138.8888  163.9525 N.ar    1  UNL1       -0.2104
     36 C         139.6145  139.1948  162.5357 C.ar    1  UNL1        0.1002
     37 O         139.6516  139.2334  166.5039 O.3     1  UNL1       -0.4600
     38 C         139.4629  140.2686  167.5729 C.3     1  UNL1        0.2132
     39 C         140.6432  140.7608  168.3570 C.3     1  UNL1        0.1195
     40 C         140.4451  141.7427  169.4735 C.3     1  UNL1        0.2988
     41 F         139.2998  140.9237  169.9906 F       1  UNL1       -0.1982
     42 F         141.5905  142.5617  168.9563 F       1  UNL1       -0.1982
     43 C         140.2471  142.7247  170.5900 C.2     1  UNL1        0.1110
     44 O         139.9295  144.1577  170.2809 O.co2   1  UNL1       -0.5439
     45 O         140.3667  142.2736  172.0156 O.co2   1  UNL1       -0.5439
@<TRIPOS>UNITY_ATOM_ATTR
44 1
charge -1
@<TRIPOS>BOND
     1    12    13    2
     2    13    14    1
     3    14    15    1
     4    15    16    1
     5    16    17   ar
     6    17    18   ar
     7    18    19   ar
     8    19    11    1
     9    11     9    1
    10     9     1    1
    11     1     2    1
    12     2     3    1
    13     3     4    1
    14     4    24    1
    15    24    25    1
    16    25    26    1
    17    26    27   ar
    18    27    28    1
    19    27    29   ar
    20    29    30   ar
    21    30    31   ar
    22    31    32   ar
    23    32    33   ar
    24    33    34   ar
    25    34    37    1
    26    37    38    1
    27    38    39    1
    28    39    40    1
    29    40    41    1
    30    40    42    1
    31    40    43    1
    32    43    44   ar
    33    43    45   ar
    34    34    35   ar
    35    35    36   ar
    36     4     5    1
    37     5     6    1
    38     4     7    1
    39     7     8    1
    40    19    20   ar
    41    20    21   ar
    42    21    22    1
    43    22    13   am
    44    21    16   ar
    45     6     1    1
    46     8     1    1
    47    36    26   ar
    48    36    31   ar
    49     9    10    1
    50    22    23    1
@<TRIPOS>MOLECULE
*****
 45 50 0 0 0
SMALL
GASTEIGER

@<TRIPOS>ATOM
      1 C         142.3856  144.6374  163.2645 C.3     1  UNL1        0.0700
      2 C         142.4903  143.8435  164.5329 C.3     1  UNL1        0.0193
      3 C         143.3998  142.6526  164.5995 C.3     1  UNL1        0.0286
      4 C         144.2047  142.2555  163.3975 C.3     1  UNL1        0.0932
      5 C         144.1000  143.0493  162.1291 C.3     1  UNL1        0.0286
      6 C         143.1904  144.2403  162.0626 C.3     1  UNL1        0.0193
      7 O         143.7200  142.9157  163.3131 O.3     1  UNL1       -0.3572
      8 C         142.8976  143.9925  163.2529 C.3     1  UNL1        0.1562
      9 N         141.4761  145.8283  163.1980 N.3     1  UNL1       -0.2926
     10 H         141.1530  146.0055  164.1491 H       1  UNL1        0.1236
     11 C         140.2562  145.7926  162.3258 C.3     1  UNL1        0.1152
     12 O         138.6200  139.4019  158.1747 O.2     1  UNL1       -0.2707
     13 C         138.4006  140.2527  159.3904 C.2     1  UNL1        0.2718
     14 C         137.4166  139.8241  160.4382 C.3     1  UNL1        0.2898
     15 O         137.1973  140.6749  161.6540 O.3     1  UNL1       -0.4628
     16 C         137.9620  141.9543  161.8219 C.ar    1  UNL1        0.1708
     17 C         137.7427  142.8051  163.0377 C.ar    1  UNL1        0.0411
     18 C         138.5074  144.0845  163.2056 C.ar    1  UNL1        0.0193
     19 C         139.4915  144.5132  162.1578 C.ar    1  UNL1        0.0765
     20 N         139.7108  143.6624  160.9421 N.ar    1  UNL1       -0.2304
     21 C         138.9460  142.3829  160.7741 C.ar    1  UNL1        0.1682
     22 N         139.1654  141.5321  159.5584 N.am    1  UNL1       -0.2639
     23 H         139.8112  141.8135  158.8707 H       1  UNL1        0.1565
     24 C         145.1142  141.0645  163.4641 C.3     1  UNL1        0.0320
     25 C         144.5367  139.6860  163.5910 C.3     1  UNL1        0.0327
     26 C         143.2592  139.3400  162.8851 C.ar    1  UNL1        0.0261
     27 C         143.2690  139.0582  161.4118 C.ar    1  UNL1        0.1566
     28 F         144.5563  139.1223  160.6444 F       1  UNL1       -0.2028
     29 C         141.9915  138.7123  160.7059 C.ar    1  UNL1        0.1281
     30 N         140.7042  138.6482  161.4732 N.ar    1  UNL1       -0.2400
     31 C         140.6944  138.9300  162.9464 C.ar    1  UNL1        0.0990
     32 C         139.4071  138.8659  163.7137 C.ar    1  UNL1        0.0254
     33 C         139.3974  139.1477  165.1870 C.ar    1  UNL1        0.0593
     34 C         140.6748  139.4937  165.8929 C.ar    1  UNL1        0.2249
     35 N         141.9621  139.5578  165.1256 N.ar    1  UNL1       -0.2104
     36 C         141.9719  139.2759  163.6524 C.ar    1  UNL1        0.1002
     37 O         140.6650  139.7755  167.3661 O.3     1  UNL1       -0.4600
     38 C         141.7228  140.6516  167.9692 C.3     1  UNL1        0.2132
     39 C         141.5519  142.1418  167.9696 C.3     1  UNL1        0.1195
     40 C         140.8940  142.8210  169.1341 C.3     1  UNL1        0.2988
     41 F         141.6697  141.9519  170.0791 F       1  UNL1       -0.1982
     42 F         140.1184  143.6901  168.1890 F       1  UNL1       -0.1982
     43 C         140.2362  143.5002  170.2985 C.2     1  UNL1        0.1110
     44 O         140.0136  144.9833  170.2738 O.co2   1  UNL1       -0.5439
     45 O         139.8010  142.6961  171.4878 O.co2   1  UNL1       -0.5439
@<TRIPOS>UNITY_ATOM_ATTR
44 1
charge -1
@<TRIPOS>BOND
     1    12    13    2
     2    13    14    1
     3    14    15    1
     4    15    16    1
     5    16    17   ar
     6    17    18   ar
     7    18    19   ar
     8    19    11    1
     9    11     9    1
    10     9     1    1
    11     1     2    1
    12     2     3    1
    13     3     4    1
    14     4    24    1
    15    24    25    1
    16    25    26    1
    17    26    27   ar
    18    27    28    1
    19    27    29   ar
    20    29    30   ar
    21    30    31   ar
    22    31    32   ar
    23    32    33   ar
    24    33    34   ar
    25    34    37    1
    26    37    38    1
    27    38    39    1
    28    39    40    1
    29    40    41    1
    30    40    42    1
    31    40    43    1
    32    43    44   ar
    33    43    45   ar
    34    34    35   ar
    35    35    36   ar
    36     4     5    1
    37     5     6    1
    38     4     7    1
    39     7     8    1
    40    19    20   ar
    41    20    21   ar
    42    21    22    1
    43    22    13   am
    44    21    16   ar
    45     6     1    1
    46     8     1    1
    47    36    26   ar
    48    36    31   ar
    49     9    10    1
    50    22    23    1
@<TRIPOS>MOLECULE
*****
 45 50 0 0 0
SMALL
GASTEIGER

@<TRIPOS>ATOM
      1 C         139.9416  138.0633  162.4691 C.3     1  UNL1        0.0700
      2 C         139.5964  137.6827  163.8783 C.3     1  UNL1        0.0193
      3 C         140.6509  137.7179  164.9445 C.3     1  UNL1        0.0286
      4 C         142.0507  138.1338  164.6014 C.3     1  UNL1        0.0932
      5 C         142.3959  138.5144  163.1922 C.3     1  UNL1        0.0286
      6 C         141.3413  138.4791  162.1260 C.3     1  UNL1        0.0193
      7 O         141.5068  138.1299  163.9833 O.3     1  UNL1       -0.3572
      8 C         140.5533  138.0981  163.0192 C.3     1  UNL1        0.1562
      9 N         138.8871  138.0280  161.4029 N.3     1  UNL1       -0.2926
     10 H         139.3646  138.1637  160.5119 H       1  UNL1        0.1236
     11 C         137.7511  139.0070  161.4389 C.3     1  UNL1        0.1152
     12 O         141.4490  145.5128  159.2595 O.2     1  UNL1       -0.2707
     13 C         140.4922  144.8066  160.1737 C.2     1  UNL1        0.2718
     14 C         139.8113  145.5628  161.2757 C.3     1  UNL1        0.2898
     15 O         138.8545  144.8566  162.1899 O.3     1  UNL1       -0.4628
     16 C         138.5786  143.3942  162.0022 C.ar    1  UNL1        0.1708
     17 C         137.6218  142.6880  162.9164 C.ar    1  UNL1        0.0411
     18 C         137.3460  141.2257  162.7287 C.ar    1  UNL1        0.0193
     19 C         138.0269  140.4694  161.6266 C.ar    1  UNL1        0.0765
     20 N         138.9837  141.1756  160.7124 N.ar    1  UNL1       -0.2304
     21 C         139.2596  142.6380  160.9002 C.ar    1  UNL1        0.1682
     22 N         140.2164  143.3442  159.9860 N.am    1  UNL1       -0.2639
     23 H         140.6633  142.8479  159.2627 H       1  UNL1        0.1565
     24 C         143.1052  138.1690  165.6676 C.3     1  UNL1        0.0320
     25 C         143.4149  139.4556  166.3740 C.3     1  UNL1        0.0327
     26 C         142.3369  140.1747  167.1294 C.ar    1  UNL1        0.0261
     27 C         141.9330  139.7004  168.4940 C.ar    1  UNL1        0.1566
     28 F         142.6073  138.5069  169.1030 F       1  UNL1       -0.2028
     29 C         140.8551  140.4196  169.2494 C.ar    1  UNL1        0.1281
     30 N         140.1808  141.6131  168.6403 N.ar    1  UNL1       -0.2400
     31 C         140.5846  142.0874  167.2758 C.ar    1  UNL1        0.0990
     32 C         139.9104  143.2809  166.6667 C.ar    1  UNL1        0.0254
     33 C         140.3142  143.7553  165.3021 C.ar    1  UNL1        0.0593
     34 C         141.3922  143.0361  164.5467 C.ar    1  UNL1        0.2249
     35 N         142.0664  141.8426  165.1558 N.ar    1  UNL1       -0.2104
     36 C         141.6627  141.3682  166.5203 C.ar    1  UNL1        0.1002
     37 O         141.7960  143.5104  163.1822 O.3     1  UNL1       -0.4600
     38 C         142.8413  144.5764  163.0376 C.3     1  UNL1        0.2132
     39 C         144.2669  144.1970  162.7659 C.3     1  UNL1        0.1195
     40 C         144.6762  142.7540  162.7879 C.3     1  UNL1        0.2988
     41 F         144.3184  142.6304  161.3364 F       1  UNL1       -0.1982
     42 F         145.0340  142.8777  164.2393 F       1  UNL1       -0.1982
     43 C         145.0854  141.3111  162.8099 C.2     1  UNL1        0.1110
     44 O         144.8531  140.4472  161.6059 O.co2   1  UNL1       -0.5439
     45 O         145.7270  140.7321  164.0360 O.co2   1  UNL1       -0.5439
@<TRIPOS>UNITY_ATOM_ATTR
44 1
charge -1
@<TRIPOS>BOND
     1    12    13    2
     2    13    14    1
     3    14    15    1
     4    15    16    1
     5    16    17   ar
     6    17    18   ar
     7    18    19   ar
     8    19    11    1
     9    11     9    1
    10     9     1    1
    11     1     2    1
    12     2     3    1
    13     3     4    1
    14     4    24    1
    15    24    25    1
    16    25    26    1
    17    26    27   ar
    18    27    28    1
    19    27    29   ar
    20    29    30   ar
    21    30    31   ar
    22    31    32   ar
    23    32    33   ar
    24    33    34   ar
    25    34    37    1
    26    37    38    1
    27    38    39    1
    28    39    40    1
    29    40    41    1
    30    40    42    1
    31    40    43    1
    32    43    44   ar
    33    43    45   ar
    34    34    35   ar
    35    35    36   ar
    36     4     5    1
    37     5     6    1
    38     4     7    1
    39     7     8    1
    40    19    20   ar
    41    20    21   ar
    42    21    22    1
    43    22    13   am
    44    21    16   ar
    45     6     1    1
    46     8     1    1
    47    36    26   ar
    48    36    31   ar
    49     9    10    1
    50    22    23    1
@<TRIPOS>MOLECULE
*****
 45 50 0 0 0
SMALL
GASTEIGER

@<TRIPOS>ATOM
      1 C         143.4372  139.0486  160.8478 C.3     1  UNL1        0.0700
      2 C         143.7869  140.3992  160.2969 C.3     1  UNL1        0.0193
      3 C         144.4853  141.4048  161.1635 C.3     1  UNL1        0.0286
      4 C         144.8342  141.0597  162.5810 C.3     1  UNL1        0.0932
      5 C         144.4845  139.7090  163.1319 C.3     1  UNL1        0.0286
      6 C         143.7860  138.7034  162.2653 C.3     1  UNL1        0.0193
      7 O         144.4515  140.4758  162.1445 O.3     1  UNL1       -0.3572
      8 C         143.8199  139.5665  161.3609 C.3     1  UNL1        0.1562
      9 N         142.7388  138.0430  159.9812 N.3     1  UNL1       -0.2926
     10 H         143.2883  137.9591  159.1260 H       1  UNL1        0.1236
     11 C         141.3171  138.2732  159.5616 C.3     1  UNL1        0.1152
     12 O         137.7718  144.5902  162.4385 O.2     1  UNL1       -0.2707
     13 C         137.9800  143.1047  162.4373 C.2     1  UNL1        0.2718
     14 C         137.2145  142.2394  163.3940 C.3     1  UNL1        0.2898
     15 O         137.4226  140.7539  163.3928 O.3     1  UNL1       -0.4628
     16 C         138.3962  140.1338  162.4350 C.ar    1  UNL1        0.1708
     17 C         138.6044  138.6483  162.4339 C.ar    1  UNL1        0.0411
     18 C         139.5780  138.0281  161.4761 C.ar    1  UNL1        0.0193
     19 C         140.3435  138.8934  160.5194 C.ar    1  UNL1        0.0765
     20 N         140.1354  140.3789  160.5205 N.ar    1  UNL1       -0.2304
     21 C         139.1617  140.9991  161.4784 C.ar    1  UNL1        0.1682
     22 N         138.9536  142.4846  161.4795 N.am    1  UNL1       -0.2639
     23 H         139.4560  143.0525  160.8517 H       1  UNL1        0.1565
     24 C         145.5326  142.0652  163.4476 C.3     1  UNL1        0.0320
     25 C         144.8336  142.6376  164.6450 C.3     1  UNL1        0.0327
     26 C         143.4940  143.2941  164.4887 C.ar    1  UNL1        0.0261
     27 C         143.3593  144.5347  163.6563 C.ar    1  UNL1        0.1566
     28 F         144.5642  145.1188  162.9802 F       1  UNL1       -0.2028
     29 C         142.0197  145.1913  163.5001 C.ar    1  UNL1        0.1281
     30 N         140.8148  144.6073  164.1762 N.ar    1  UNL1       -0.2400
     31 C         140.9495  143.3667  165.0085 C.ar    1  UNL1        0.0990
     32 C         139.7446  142.7827  165.6846 C.ar    1  UNL1        0.0254
     33 C         139.8793  141.5421  166.5170 C.ar    1  UNL1        0.0593
     34 C         141.2189  140.8856  166.6733 C.ar    1  UNL1        0.2249
     35 N         142.4238  141.4696  165.9972 N.ar    1  UNL1       -0.2104
     36 C         142.2891  142.7101  165.1648 C.ar    1  UNL1        0.1002
     37 O         141.3535  139.6451  167.5057 O.3     1  UNL1       -0.4600
     38 C         142.6007  139.4100  168.3052 C.3     1  UNL1        0.2132
     39 C         142.5615  139.5058  169.8017 C.3     1  UNL1        0.1195
     40 C         142.2073  140.8058  170.4610 C.3     1  UNL1        0.2988
     41 F         143.4452  141.4322  169.8909 F       1  UNL1       -0.1982
     42 F         140.9693  140.1793  171.0310 F       1  UNL1       -0.1982
     43 C         141.8530  142.1057  171.1202 C.2     1  UNL1        0.1110
     44 O         140.6069  142.2115  171.9485 O.co2   1  UNL1       -0.5439
     45 O         142.7449  143.2999  170.9512 O.co2   1  UNL1       -0.5439
@<TRIPOS>UNITY_ATOM_ATTR
44 1
charge -1
@<TRIPOS>BOND
     1    12    13    2
     2    13    14    1
     3    14    15    1
     4    15    16    1
     5    16    17   ar
     6    17    18   ar
     7    18    19   ar
     8    19    11    1
     9    11     9    1
    10     9     1    1
    11     1     2    1
    12     2     3    1
    13     3     4    1
    14     4    24    1
    15    24    25    1
    16    25    26    1
    17    26    27   ar
    18    27    28    1
    19    27    29   ar
    20    29    30   ar
    21    30    31   ar
    22    31    32   ar
    23    32    33   ar
    24    33    34   ar
    25    34    37    1
    26    37    38    1
    27    38    39    1
    28    39    40    1
    29    40    41    1
    30    40    42    1
    31    40    43    1
    32    43    44   ar
    33    43    45   ar
    34    34    35   ar
    35    35    36   ar
    36     4     5    1
    37     5     6    1
    38     4     7    1
    39     7     8    1
    40    19    20   ar
    41    20    21   ar
    42    21    22    1
    43    22    13   am
    44    21    16   ar
    45     6     1    1
    46     8     1    1
    47    36    26   ar
    48    36    31   ar
    49     9    10    1
    50    22    23    1
@<TRIPOS>MOLECULE
*****
 45 50 0 0 0
SMALL
GASTEIGER

@<TRIPOS>ATOM
      1 C         142.0252  138.1059  161.2926 C.3     1  UNL1        0.0700
      2 C         142.4482  137.8250  162.7041 C.3     1  UNL1        0.0193
      3 C         141.4137  137.6415  163.7746 C.3     1  UNL1        0.0286
      4 C         139.9561  137.7390  163.4337 C.3     1  UNL1        0.0932
      5 C         139.5332  138.0199  162.0223 C.3     1  UNL1        0.0286
      6 C         140.5677  138.2033  160.9517 C.3     1  UNL1        0.0193
      7 O         140.4864  137.8468  162.8132 O.3     1  UNL1       -0.3572
      8 C         141.4218  138.0127  161.8451 C.3     1  UNL1        0.1562
      9 N         143.0597  138.2894  160.2221 N.3     1  UNL1       -0.2926
     10 H         143.9237  137.8768  160.5737 H       1  UNL1        0.1236
     11 C         143.4031  139.6675  159.7392 C.3     1  UNL1        0.1152
     12 O         139.9802  146.1773  162.3190 O.2     1  UNL1       -0.2707
     13 C         141.0845  145.1663  162.4106 C.2     1  UNL1        0.2718
     14 C         142.1522  145.3143  163.4538 C.3     1  UNL1        0.2898
     15 O         143.2565  144.3033  163.5454 O.3     1  UNL1       -0.4628
     16 C         143.2931  143.1443  162.5939 C.ar    1  UNL1        0.1708
     17 C         144.3975  142.1333  162.6855 C.ar    1  UNL1        0.0411
     18 C         144.4341  140.9744  161.7340 C.ar    1  UNL1        0.0193
     19 C         143.3664  140.8264  160.6907 C.ar    1  UNL1        0.0765
     20 N         142.2621  141.8374  160.5991 N.ar    1  UNL1       -0.2304
     21 C         142.2255  142.9964  161.5507 C.ar    1  UNL1        0.1682
     22 N         141.1212  144.0074  161.4591 N.am    1  UNL1       -0.2639
     23 H         140.4205  143.9103  160.7744 H       1  UNL1        0.1565
     24 C         138.9216  137.5555  164.5043 C.3     1  UNL1        0.0320
     25 C         138.6195  138.6756  165.4551 C.3     1  UNL1        0.0327
     26 C         139.1055  140.0632  165.1582 C.ar    1  UNL1        0.0261
     27 C         138.4025  140.9004  164.1311 C.ar    1  UNL1        0.1566
     28 F         137.2133  140.3500  163.4011 F       1  UNL1       -0.2028
     29 C         138.8885  142.2880  163.8342 C.ar    1  UNL1        0.1281
     30 N         140.0777  142.8385  164.5642 N.ar    1  UNL1       -0.2400
     31 C         140.7807  142.0013  165.5912 C.ar    1  UNL1        0.0990
     32 C         141.9699  142.5518  166.3213 C.ar    1  UNL1        0.0254
     33 C         142.6730  141.7145  167.3483 C.ar    1  UNL1        0.0593
     34 C         142.1869  140.3269  167.6453 C.ar    1  UNL1        0.2249
     35 N         140.9978  139.7764  166.9152 N.ar    1  UNL1       -0.2104
     36 C         140.2947  140.6136  165.8882 C.ar    1  UNL1        0.1002
     37 O         142.8900  139.4897  168.6723 O.3     1  UNL1       -0.4600
     38 C         142.2460  139.2380  170.0034 C.3     1  UNL1        0.2132
     39 C         140.8814  139.7898  170.2927 C.3     1  UNL1        0.1195
     40 C         140.6916  141.2673  170.4681 C.3     1  UNL1        0.2988
     41 F         141.9636  141.3367  171.2602 F       1  UNL1       -0.1982
     42 F         139.4197  141.1980  169.6760 F       1  UNL1       -0.1982
     43 C         140.5019  142.7449  170.6435 C.2     1  UNL1        0.1110
     44 O         141.5953  143.6934  170.2502 O.co2   1  UNL1       -0.5439
     45 O         139.2186  143.2739  171.2122 O.co2   1  UNL1       -0.5439
@<TRIPOS>UNITY_ATOM_ATTR
44 1
charge -1
@<TRIPOS>BOND
     1    12    13    2
     2    13    14    1
     3    14    15    1
     4    15    16    1
     5    16    17   ar
     6    17    18   ar
     7    18    19   ar
     8    19    11    1
     9    11     9    1
    10     9     1    1
    11     1     2    1
    12     2     3    1
    13     3     4    1
    14     4    24    1
    15    24    25    1
    16    25    26    1
    17    26    27   ar
    18    27    28    1
    19    27    29   ar
    20    29    30   ar
    21    30    31   ar
    22    31    32   ar
    23    32    33   ar
    24    33    34   ar
    25    34    37    1
    26    37    38    1
    27    38    39    1
    28    39    40    1
    29    40    41    1
    30    40    42    1
    31    40    43    1
    32    43    44   ar
    33    43    45   ar
    34    34    35   ar
    35    35    36   ar
    36     4     5    1
    37     5     6    1
    38     4     7    1
    39     7     8    1
    40    19    20   ar
    41    20    21   ar
    42    21    22    1
    43    22    13   am
    44    21    16   ar
    45     6     1    1
    46     8     1    1
    47    36    26   ar
    48    36    31   ar
    49     9    10    1
    50    22    23    1
@<TRIPOS>MOLECULE
*****
 45 50 0 0 0
SMALL
GASTEIGER

@<TRIPOS>ATOM
      1 C         143.4977  143.9889  162.1547 C.3     1  UNL1        0.0700
      2 C         143.4492  144.3937  163.5982 C.3     1  UNL1        0.0193
      3 C         142.1317  144.6955  164.2486 C.3     1  UNL1        0.0286
      4 C         140.8627  144.5925  163.4555 C.3     1  UNL1        0.0932
      5 C         140.9112  144.1877  162.0120 C.3     1  UNL1        0.0286
      6 C         142.2288  143.8858  161.3616 C.3     1  UNL1        0.0193
      7 O         141.5608  144.4173  163.0557 O.3     1  UNL1       -0.3572
      8 C         142.7521  144.1444  162.4676 C.3     1  UNL1        0.1562
      9 N         144.8152  143.6870  161.5043 N.3     1  UNL1       -0.2926
     10 H         144.7662  144.0562  160.5547 H       1  UNL1        0.1236
     11 C         145.2893  142.2682  161.3933 C.3     1  UNL1        0.1152
     12 O         139.0608  137.5912  161.1095 O.2     1  UNL1       -0.2707
     13 C         140.3196  138.0382  161.7918 C.2     1  UNL1        0.2718
     14 C         140.7611  137.3732  163.0617 C.3     1  UNL1        0.2898
     15 O         142.0200  137.8202  163.7440 O.3     1  UNL1       -0.4628
     16 C         142.8373  138.9322  163.1563 C.ar    1  UNL1        0.1708
     17 C         144.0962  139.3791  163.8386 C.ar    1  UNL1        0.0411
     18 C         144.9135  140.4911  163.2510 C.ar    1  UNL1        0.0193
     19 C         144.4720  141.1562  161.9810 C.ar    1  UNL1        0.0765
     20 N         143.2131  140.7092  161.2987 N.ar    1  UNL1       -0.2304
     21 C         142.3958  139.5972  161.8864 C.ar    1  UNL1        0.1682
     22 N         141.1369  139.1502  161.2041 N.am    1  UNL1       -0.2639
     23 H         140.8472  139.5867  160.3706 H       1  UNL1        0.1565
     24 C         139.5452  144.8944  164.1059 C.3     1  UNL1        0.0320
     25 C         139.0969  144.0995  165.2964 C.3     1  UNL1        0.0327
     26 C         139.1461  142.6008  165.2593 C.ar    1  UNL1        0.0261
     27 C         138.0754  141.8327  164.5424 C.ar    1  UNL1        0.1566
     28 F         136.9556  142.5635  163.8626 F       1  UNL1       -0.2028
     29 C         138.1246  140.3340  164.5053 C.ar    1  UNL1        0.1281
     30 N         139.2444  139.6033  165.1850 N.ar    1  UNL1       -0.2400
     31 C         140.3151  140.3713  165.9019 C.ar    1  UNL1        0.0990
     32 C         141.4349  139.6406  166.5816 C.ar    1  UNL1        0.0254
     33 C         142.5055  140.4086  167.2985 C.ar    1  UNL1        0.0593
     34 C         142.4563  141.9073  167.3356 C.ar    1  UNL1        0.2249
     35 N         141.3365  142.6381  166.6559 N.ar    1  UNL1       -0.2104
     36 C         140.2659  141.8701  165.9390 C.ar    1  UNL1        0.1002
     37 O         143.5269  142.6753  168.0525 O.3     1  UNL1       -0.4600
     38 C         143.8237  142.3817  169.4933 C.3     1  UNL1        0.2132
     39 C         143.0052  143.0244  170.5736 C.3     1  UNL1        0.1195
     40 C         141.5569  142.6668  170.7305 C.3     1  UNL1        0.2988
     41 F         141.9475  141.3393  171.3096 F       1  UNL1       -0.1982
     42 F         141.1664  143.9943  170.1515 F       1  UNL1       -0.1982
     43 C         140.1087  142.3092  170.8875 C.2     1  UNL1        0.1110
     44 O         139.1020  143.3767  171.1988 O.co2   1  UNL1       -0.5439
     45 O         139.6671  140.8839  170.7330 O.co2   1  UNL1       -0.5439
@<TRIPOS>UNITY_ATOM_ATTR
44 1
charge -1
@<TRIPOS>BOND
     1    12    13    2
     2    13    14    1
     3    14    15    1
     4    15    16    1
     5    16    17   ar
     6    17    18   ar
     7    18    19   ar
     8    19    11    1
     9    11     9    1
    10     9     1    1
    11     1     2    1
    12     2     3    1
    13     3     4    1
    14     4    24    1
    15    24    25    1
    16    25    26    1
    17    26    27   ar
    18    27    28    1
    19    27    29   ar
    20    29    30   ar
    21    30    31   ar
    22    31    32   ar
    23    32    33   ar
    24    33    34   ar
    25    34    37    1
    26    37    38    1
    27    38    39    1
    28    39    40    1
    29    40    41    1
    30    40    42    1
    31    40    43    1
    32    43    44   ar
    33    43    45   ar
    34    34    35   ar
    35    35    36   ar
    36     4     5    1
    37     5     6    1
    38     4     7    1
    39     7     8    1
    40    19    20   ar
    41    20    21   ar
    42    21    22    1
    43    22    13   am
    44    21    16   ar
    45     6     1    1
    46     8     1    1
    47    36    26   ar
    48    36    31   ar
    49     9    10    1
    50    22    23    1
