@<TRIPOS>MOLECULE
*****
 33 37 0 0 0
SMALL
GASTEIGER

@<TRIPOS>ATOM
      1 C         141.9756  137.4919  156.5704 C.3     1  UNL1        0.2126
      2 C         140.7915  137.8735  157.4084 C.3     1  UNL1        0.1448
      3 N         141.3006  138.4089  158.7137 N.am    1  UNL1       -0.2435
      4 C         142.7995  138.3583  158.6825 C.2     1  UNL1        0.4052
      5 O         143.7196  138.7974  159.7828 O.2     1  UNL1       -0.2262
      6 O         143.2166  137.7916  157.3579 O.3     1  UNL1       -0.4319
      7 C         142.4414  133.0563  155.9722 C.ar    1  UNL1        0.1388
      8 C         142.3930  132.4768  154.5895 C.ar    1  UNL1        0.0384
      9 C         142.1893  133.3759  153.4062 C.ar    1  UNL1        0.0222
     10 C         142.0341  134.8544  153.6056 C.ar    1  UNL1        0.0813
     11 N         141.8304  135.7535  152.4223 N.ar    1  UNL1       -0.2439
     12 C         141.6752  137.2320  152.6217 C.ar    1  UNL1        0.0986
     13 C         141.7236  137.8115  154.0044 C.ar    1  UNL1        0.0199
     14 C         141.9272  136.9125  155.1877 C.ar    1  UNL1        0.0222
     15 C         142.0825  135.4339  154.9883 C.ar    1  UNL1        0.0201
     16 C         142.2861  134.5348  156.1716 C.ar    1  UNL1        0.0382
     17 C         143.1879  130.7725  156.9607 C.3     1  UNL1        0.2525
     18 O         142.6450  132.1572  157.1555 O.3     1  UNL1       -0.4714
     19 C         140.4588  138.9075  159.8507 C.3     1  UNL1        0.0815
     20 C         139.4039  139.9450  159.6042 C.3     1  UNL1        0.0373
     21 C         138.5620  140.4436  160.7411 C.3     1  UNL1        0.0741
     22 N         138.7750  139.9046  162.1247 N.3     1  UNL1       -0.2689
     23 C         139.8299  138.8671  162.3712 C.3     1  UNL1        0.0741
     24 C         140.6718  138.3685  161.2342 C.3     1  UNL1        0.0373
     25 C         137.9332  140.4032  163.2617 C.3     1  UNL1        0.0991
     26 C         138.4633  140.3563  164.6641 C.ar    1  UNL1       -0.0065
     27 C         138.0663  139.2360  165.5791 C.ar    1  UNL1       -0.0033
     28 C         138.5965  139.1892  166.9815 C.ar    1  UNL1       -0.0048
     29 C         139.5237  140.2628  167.4689 C.ar    1  UNL1       -0.0258
     30 C         140.0539  140.2161  168.8713 C.3     1  UNL1        0.0307
     31 C         139.9208  141.3832  166.5540 C.ar    1  UNL1       -0.0261
     32 C         140.8481  142.4568  167.0414 C.3     1  UNL1        0.0307
     33 C         139.3906  141.4299  165.1516 C.ar    1  UNL1       -0.0075
@<TRIPOS>BOND
     1    17    18    1
     2    18     7    1
     3     7     8   ar
     4     8     9   ar
     5     9    10   ar
     6    10    11   ar
     7    11    12   ar
     8    12    13   ar
     9    13    14   ar
    10    14     1    1
    11     1     2    1
    12     2     3    1
    13     3    19    1
    14    19    20    1
    15    20    21    1
    16    21    22    1
    17    22    25    1
    18    25    26    1
    19    26    27   ar
    20    27    28   ar
    21    28    29   ar
    22    29    30    1
    23    29    31   ar
    24    31    32    1
    25    31    33   ar
    26    22    23    1
    27    23    24    1
    28     3     4   am
    29     4     5    2
    30     4     6    1
    31    14    15   ar
    32    15    16   ar
    33    16     7   ar
    34    15    10   ar
    35     6     1    1
    36    24    19    1
    37    33    26   ar
@<TRIPOS>MOLECULE
*****
 33 37 0 0 0
SMALL
GASTEIGER

@<TRIPOS>ATOM
      1 C         142.1005  137.4461  156.1893 C.3     1  UNL1        0.2126
      2 C         140.9408  137.6182  157.1250 C.3     1  UNL1        0.1448
      3 N         141.4506  138.2580  158.3822 N.am    1  UNL1       -0.2435
      4 C         142.9254  138.4814  158.2236 C.2     1  UNL1        0.4052
      5 O         143.8382  139.0983  159.2415 O.2     1  UNL1       -0.2262
      6 O         143.3270  137.9796  156.8683 O.3     1  UNL1       -0.4319
      7 C         142.3685  132.9842  155.6707 C.ar    1  UNL1        0.1388
      8 C         142.3116  132.3840  154.2973 C.ar    1  UNL1        0.0384
      9 C         142.1653  133.2712  153.0966 C.ar    1  UNL1        0.0222
     10 C         142.0760  134.7584  153.2694 C.ar    1  UNL1        0.0813
     11 N         141.9298  135.6456  152.0687 N.ar    1  UNL1       -0.2439
     12 C         141.8405  137.1329  152.2416 C.ar    1  UNL1        0.0986
     13 C         141.8973  137.7331  153.6151 C.ar    1  UNL1        0.0199
     14 C         142.0436  136.8460  154.8158 C.ar    1  UNL1        0.0222
     15 C         142.1329  135.3586  154.6429 C.ar    1  UNL1        0.0201
     16 C         142.2791  134.4715  155.8436 C.ar    1  UNL1        0.0382
     17 C         142.9560  130.6734  156.7028 C.3     1  UNL1        0.2525
     18 O         142.5147  132.0970  156.8714 O.3     1  UNL1       -0.4714
     19 C         140.6297  138.6122  159.5867 C.3     1  UNL1        0.0815
     20 C         139.3541  139.3845  159.4243 C.3     1  UNL1        0.0373
     21 C         138.5332  139.7388  160.6287 C.3     1  UNL1        0.0741
     22 N         138.9880  139.3207  161.9957 N.3     1  UNL1       -0.2689
     23 C         140.2637  138.5484  162.1581 C.3     1  UNL1        0.0741
     24 C         141.0845  138.1942  160.9536 C.3     1  UNL1        0.0373
     25 C         138.1672  139.6749  163.2002 C.3     1  UNL1        0.0991
     26 C         138.2955  141.0340  163.8218 C.ar    1  UNL1       -0.0065
     27 C         137.4353  142.1640  163.3389 C.ar    1  UNL1       -0.0033
     28 C         137.5637  143.5230  163.9606 C.ar    1  UNL1       -0.0048
     29 C         138.5523  143.7521  165.0652 C.ar    1  UNL1       -0.0258
     30 C         138.6807  145.1111  165.6870 C.3     1  UNL1        0.0307
     31 C         139.4125  142.6222  165.5482 C.ar    1  UNL1       -0.0261
     32 C         140.4011  142.8512  166.6528 C.3     1  UNL1        0.0307
     33 C         139.2841  141.2631  164.9264 C.ar    1  UNL1       -0.0075
@<TRIPOS>BOND
     1    17    18    1
     2    18     7    1
     3     7     8   ar
     4     8     9   ar
     5     9    10   ar
     6    10    11   ar
     7    11    12   ar
     8    12    13   ar
     9    13    14   ar
    10    14     1    1
    11     1     2    1
    12     2     3    1
    13     3    19    1
    14    19    20    1
    15    20    21    1
    16    21    22    1
    17    22    25    1
    18    25    26    1
    19    26    27   ar
    20    27    28   ar
    21    28    29   ar
    22    29    30    1
    23    29    31   ar
    24    31    32    1
    25    31    33   ar
    26    22    23    1
    27    23    24    1
    28     3     4   am
    29     4     5    2
    30     4     6    1
    31    14    15   ar
    32    15    16   ar
    33    16     7   ar
    34    15    10   ar
    35     6     1    1
    36    24    19    1
    37    33    26   ar
@<TRIPOS>MOLECULE
*****
 33 37 0 0 0
SMALL
GASTEIGER

@<TRIPOS>ATOM
      1 C         139.3570  139.9991  163.6514 C.3     1  UNL1        0.2126
      2 C         140.0573  139.0477  162.7270 C.3     1  UNL1        0.1448
      3 N         139.9462  139.5899  161.3328 N.am    1  UNL1       -0.2435
      4 C         139.1773  140.8763  161.3955 C.2     1  UNL1        0.4052
      5 O         138.8329  141.7555  160.2300 O.2     1  UNL1       -0.2262
      6 O         138.8131  141.1292  162.8285 O.3     1  UNL1       -0.4319
      7 C         142.3268  141.9806  166.3906 C.ar    1  UNL1        0.1388
      8 C         142.1938  141.8285  167.8769 C.ar    1  UNL1        0.0384
      9 C         141.0708  141.0159  168.4502 C.ar    1  UNL1        0.0222
     10 C         140.0809  140.3554  167.5371 C.ar    1  UNL1        0.0813
     11 N         138.9579  139.5428  168.1104 N.ar    1  UNL1       -0.2439
     12 C         137.9680  138.8823  167.1973 C.ar    1  UNL1        0.0986
     13 C         138.1010  139.0344  165.7109 C.ar    1  UNL1        0.0199
     14 C         139.2240  139.8470  165.1377 C.ar    1  UNL1        0.0222
     15 C         140.2139  140.5075  166.0508 C.ar    1  UNL1        0.0201
     16 C         141.3369  141.3201  165.4776 C.ar    1  UNL1        0.0382
     17 C         144.3274  142.2113  164.7492 C.3     1  UNL1        0.2525
     18 O         143.4498  142.7932  165.8174 O.3     1  UNL1       -0.4714
     19 C         140.5058  138.9568  160.0934 C.3     1  UNL1        0.0815
     20 C         141.9682  138.6329  160.0114 C.3     1  UNL1        0.0373
     21 C         142.5279  137.9998  158.7720 C.3     1  UNL1        0.0741
     22 N         141.6251  137.6906  157.6146 N.3     1  UNL1       -0.2689
     23 C         140.1628  138.0144  157.6967 C.3     1  UNL1        0.0741
     24 C         139.6031  138.6475  158.9361 C.3     1  UNL1        0.0373
     25 C         142.1847  137.0575  156.3753 C.3     1  UNL1        0.0991
     26 C         142.3173  135.5658  156.2895 C.ar    1  UNL1       -0.0065
     27 C         141.3604  134.7749  155.4476 C.ar    1  UNL1       -0.0033
     28 C         141.4931  133.2832  155.3620 C.ar    1  UNL1       -0.0048
     29 C         142.5827  132.5825  156.1181 C.ar    1  UNL1       -0.0258
     30 C         142.7153  131.0908  156.0325 C.3     1  UNL1        0.0307
     31 C         143.5396  133.3734  156.9600 C.ar    1  UNL1       -0.0261
     32 C         144.6291  132.6727  157.7162 C.3     1  UNL1        0.0307
     33 C         143.4069  134.8650  157.0457 C.ar    1  UNL1       -0.0075
@<TRIPOS>BOND
     1    17    18    1
     2    18     7    1
     3     7     8   ar
     4     8     9   ar
     5     9    10   ar
     6    10    11   ar
     7    11    12   ar
     8    12    13   ar
     9    13    14   ar
    10    14     1    1
    11     1     2    1
    12     2     3    1
    13     3    19    1
    14    19    20    1
    15    20    21    1
    16    21    22    1
    17    22    25    1
    18    25    26    1
    19    26    27   ar
    20    27    28   ar
    21    28    29   ar
    22    29    30    1
    23    29    31   ar
    24    31    32    1
    25    31    33   ar
    26    22    23    1
    27    23    24    1
    28     3     4   am
    29     4     5    2
    30     4     6    1
    31    14    15   ar
    32    15    16   ar
    33    16     7   ar
    34    15    10   ar
    35     6     1    1
    36    24    19    1
    37    33    26   ar
@<TRIPOS>MOLECULE
*****
 33 37 0 0 0
SMALL
GASTEIGER

@<TRIPOS>ATOM
      1 C         142.0544  138.1386  157.4999 C.3     1  UNL1        0.2126
      2 C         140.9614  138.2417  158.5221 C.3     1  UNL1        0.1448
      3 N         141.5967  138.5069  159.8548 N.am    1  UNL1       -0.2435
      4 C         143.0823  138.5676  159.6563 C.2     1  UNL1        0.4052
      5 O         144.1053  138.8129  160.7255 O.2     1  UNL1       -0.2262
      6 O         143.3651  138.3401  158.2010 O.3     1  UNL1       -0.4319
      7 C         142.3400  133.9411  155.9032 C.ar    1  UNL1        0.1388
      8 C         142.1547  133.6821  154.4375 C.ar    1  UNL1        0.0384
      9 C         141.8742  134.8222  153.5039 C.ar    1  UNL1        0.0222
     10 C         141.7791  136.2213  154.0361 C.ar    1  UNL1        0.0813
     11 N         141.4986  137.3614  153.1026 N.ar    1  UNL1       -0.2439
     12 C         141.4034  138.7606  153.6348 C.ar    1  UNL1        0.0986
     13 C         141.5887  139.0197  155.1006 C.ar    1  UNL1        0.0199
     14 C         141.8691  137.8796  156.0342 C.ar    1  UNL1        0.0222
     15 C         141.9643  136.4804  155.5019 C.ar    1  UNL1        0.0201
     16 C         142.2448  135.3403  156.4354 C.ar    1  UNL1        0.0382
     17 C         144.0159  132.5641  157.3333 C.3     1  UNL1        0.2525
     18 O         142.6204  132.8010  156.8368 O.3     1  UNL1       -0.4714
     19 C         140.8733  138.6807  161.1573 C.3     1  UNL1        0.0815
     20 C         141.2505  137.8422  162.3425 C.3     1  UNL1        0.0373
     21 C         140.5273  138.0160  163.6450 C.3     1  UNL1        0.0741
     22 N         139.4266  139.0284  163.7624 N.3     1  UNL1       -0.2689
     23 C         139.0494  139.8670  162.5773 C.3     1  UNL1        0.0741
     24 C         139.7728  139.6931  161.2747 C.3     1  UNL1        0.0373
     25 C         138.7033  139.2023  165.0650 C.3     1  UNL1        0.0991
     26 C         139.2469  140.1355  166.1059 C.ar    1  UNL1       -0.0065
     27 C         139.8640  141.4396  165.6953 C.ar    1  UNL1       -0.0033
     28 C         140.4076  142.3728  166.7363 C.ar    1  UNL1       -0.0048
     29 C         140.3341  142.0019  168.1879 C.ar    1  UNL1       -0.0258
     30 C         140.8777  142.9350  169.2289 C.3     1  UNL1        0.0307
     31 C         139.7170  140.6978  168.5985 C.ar    1  UNL1       -0.0261
     32 C         139.6435  140.3269  170.0501 C.3     1  UNL1        0.0307
     33 C         139.1734  139.7646  167.5575 C.ar    1  UNL1       -0.0075
@<TRIPOS>BOND
     1    17    18    1
     2    18     7    1
     3     7     8   ar
     4     8     9   ar
     5     9    10   ar
     6    10    11   ar
     7    11    12   ar
     8    12    13   ar
     9    13    14   ar
    10    14     1    1
    11     1     2    1
    12     2     3    1
    13     3    19    1
    14    19    20    1
    15    20    21    1
    16    21    22    1
    17    22    25    1
    18    25    26    1
    19    26    27   ar
    20    27    28   ar
    21    28    29   ar
    22    29    30    1
    23    29    31   ar
    24    31    32    1
    25    31    33   ar
    26    22    23    1
    27    23    24    1
    28     3     4   am
    29     4     5    2
    30     4     6    1
    31    14    15   ar
    32    15    16   ar
    33    16     7   ar
    34    15    10   ar
    35     6     1    1
    36    24    19    1
    37    33    26   ar
@<TRIPOS>MOLECULE
*****
 33 37 0 0 0
SMALL
GASTEIGER

@<TRIPOS>ATOM
      1 C         140.6156  141.4659  161.3360 C.3     1  UNL1        0.2126
      2 C         141.0391  140.9447  159.9947 C.3     1  UNL1        0.1448
      3 N         140.8227  139.4605  159.9847 N.am    1  UNL1       -0.2435
      4 C         140.2654  139.0642  161.3198 C.2     1  UNL1        0.4052
      5 O         139.9003  137.6729  161.7451 O.2     1  UNL1       -0.2262
      6 O         140.1375  140.3036  162.1549 O.3     1  UNL1       -0.4319
      7 C         143.9899  142.9044  163.9426 C.ar    1  UNL1        0.1388
      8 C         144.0364  144.3363  164.3869 C.ar    1  UNL1        0.0384
      9 C         142.9582  145.2887  163.9623 C.ar    1  UNL1        0.0222
     10 C         141.8334  144.8092  163.0935 C.ar    1  UNL1        0.0813
     11 N         140.7551  145.7616  162.6690 N.ar    1  UNL1       -0.2439
     12 C         139.6303  145.2821  161.8001 C.ar    1  UNL1        0.0986
     13 C         139.5838  143.8502  161.3558 C.ar    1  UNL1        0.0199
     14 C         140.6621  142.8978  161.7803 C.ar    1  UNL1        0.0222
     15 C         141.7869  143.3773  162.6492 C.ar    1  UNL1        0.0201
     16 C         142.8652  142.4249  163.0737 C.ar    1  UNL1        0.0382
     17 C         145.1679  140.5987  163.7279 C.3     1  UNL1        0.2525
     18 O         145.0682  141.9520  164.3671 O.3     1  UNL1       -0.4714
     19 C         141.1126  138.5349  158.8404 C.3     1  UNL1        0.0815
     20 C         140.0178  138.1528  157.8889 C.3     1  UNL1        0.0373
     21 C         140.3076  137.2272  156.7446 C.3     1  UNL1        0.0741
     22 N         141.6925  136.6838  156.5519 N.3     1  UNL1       -0.2689
     23 C         142.7873  137.0659  157.5034 C.3     1  UNL1        0.0741
     24 C         142.4973  137.9915  158.6477 C.3     1  UNL1        0.0373
     25 C         141.9824  135.7582  155.4076 C.3     1  UNL1        0.0991
     26 C         142.2787  134.3114  155.6700 C.ar    1  UNL1       -0.0065
     27 C         141.3471  133.2509  155.1626 C.ar    1  UNL1       -0.0033
     28 C         141.6436  131.8041  155.4250 C.ar    1  UNL1       -0.0048
     29 C         142.8717  131.4178  156.1949 C.ar    1  UNL1       -0.0258
     30 C         143.1681  129.9710  156.4573 C.3     1  UNL1        0.0307
     31 C         143.8033  132.4782  156.7022 C.ar    1  UNL1       -0.0261
     32 C         145.0314  132.0919  157.4721 C.3     1  UNL1        0.0307
     33 C         143.5068  133.9250  156.4398 C.ar    1  UNL1       -0.0075
@<TRIPOS>BOND
     1    17    18    1
     2    18     7    1
     3     7     8   ar
     4     8     9   ar
     5     9    10   ar
     6    10    11   ar
     7    11    12   ar
     8    12    13   ar
     9    13    14   ar
    10    14     1    1
    11     1     2    1
    12     2     3    1
    13     3    19    1
    14    19    20    1
    15    20    21    1
    16    21    22    1
    17    22    25    1
    18    25    26    1
    19    26    27   ar
    20    27    28   ar
    21    28    29   ar
    22    29    30    1
    23    29    31   ar
    24    31    32    1
    25    31    33   ar
    26    22    23    1
    27    23    24    1
    28     3     4   am
    29     4     5    2
    30     4     6    1
    31    14    15   ar
    32    15    16   ar
    33    16     7   ar
    34    15    10   ar
    35     6     1    1
    36    24    19    1
    37    33    26   ar
@<TRIPOS>MOLECULE
*****
 33 37 0 0 0
SMALL
GASTEIGER

@<TRIPOS>ATOM
      1 C         138.8256  139.8690  161.1212 C.3     1  UNL1        0.2126
      2 C         139.8489  138.9872  160.4691 C.3     1  UNL1        0.1448
      3 N         139.6060  139.0113  158.9891 N.am    1  UNL1       -0.2435
      4 C         138.4326  139.9081  158.7265 C.2     1  UNL1        0.4052
      5 O         137.8447  140.2200  157.3822 O.2     1  UNL1       -0.2262
      6 O         137.9503  140.4382  160.0442 O.3     1  UNL1       -0.4319
      7 C         138.7111  144.1033  162.6402 C.ar    1  UNL1        0.1388
      8 C         138.5853  144.3693  164.1110 C.ar    1  UNL1        0.0384
      9 C         138.4976  143.2239  165.0755 C.ar    1  UNL1        0.0222
     10 C         138.5358  141.8125  164.5692 C.ar    1  UNL1        0.0813
     11 N         138.4481  140.6670  165.5337 N.ar    1  UNL1       -0.2439
     12 C         138.4863  139.2556  165.0274 C.ar    1  UNL1        0.0986
     13 C         138.6121  138.9896  163.5565 C.ar    1  UNL1        0.0199
     14 C         138.6998  140.1350  162.5920 C.ar    1  UNL1        0.0222
     15 C         138.6616  141.5465  163.0984 C.ar    1  UNL1        0.0201
     16 C         138.7493  142.6919  162.1339 C.ar    1  UNL1        0.0382
     17 C         139.8970  146.2613  161.8116 C.3     1  UNL1        0.2525
     18 O         138.7988  145.2488  161.6757 O.3     1  UNL1       -0.4714
     19 C         140.3975  138.2690  157.9535 C.3     1  UNL1        0.0815
     20 C         139.6901  137.5200  156.8633 C.3     1  UNL1        0.0373
     21 C         140.4815  136.7776  155.8277 C.3     1  UNL1        0.0741
     22 N         141.9806  136.7843  155.8823 N.3     1  UNL1       -0.2689
     23 C         142.6880  137.5334  156.9724 C.3     1  UNL1        0.0741
     24 C         141.8965  138.2757  158.0080 C.3     1  UNL1        0.0373
     25 C         142.7721  136.0420  154.8466 C.3     1  UNL1        0.0991
     26 C         143.1126  134.5964  155.0569 C.ar    1  UNL1       -0.0065
     27 C         142.6485  133.5654  154.0712 C.ar    1  UNL1       -0.0033
     28 C         142.9891  132.1198  154.2816 C.ar    1  UNL1       -0.0048
     29 C         143.7937  131.7052  155.4777 C.ar    1  UNL1       -0.0258
     30 C         144.1343  130.2596  155.6881 C.3     1  UNL1        0.0307
     31 C         144.2578  132.7362  156.4634 C.ar    1  UNL1       -0.0261
     32 C         145.0625  132.3216  157.6596 C.3     1  UNL1        0.0307
     33 C         143.9172  134.1818  156.2530 C.ar    1  UNL1       -0.0075
@<TRIPOS>BOND
     1    17    18    1
     2    18     7    1
     3     7     8   ar
     4     8     9   ar
     5     9    10   ar
     6    10    11   ar
     7    11    12   ar
     8    12    13   ar
     9    13    14   ar
    10    14     1    1
    11     1     2    1
    12     2     3    1
    13     3    19    1
    14    19    20    1
    15    20    21    1
    16    21    22    1
    17    22    25    1
    18    25    26    1
    19    26    27   ar
    20    27    28   ar
    21    28    29   ar
    22    29    30    1
    23    29    31   ar
    24    31    32    1
    25    31    33   ar
    26    22    23    1
    27    23    24    1
    28     3     4   am
    29     4     5    2
    30     4     6    1
    31    14    15   ar
    32    15    16   ar
    33    16     7   ar
    34    15    10   ar
    35     6     1    1
    36    24    19    1
    37    33    26   ar
@<TRIPOS>MOLECULE
*****
 33 37 0 0 0
SMALL
GASTEIGER

@<TRIPOS>ATOM
      1 C         142.6607  143.0756  161.9731 C.3     1  UNL1        0.2126
      2 C         142.5764  143.1537  160.4776 C.3     1  UNL1        0.1448
      3 N         141.6220  144.2555  160.1240 N.am    1  UNL1       -0.2435
      4 C         141.1163  144.8584  161.4011 C.2     1  UNL1        0.4052
      5 O         140.1401  145.9915  161.5153 O.2     1  UNL1       -0.2262
      6 O         141.7583  144.1291  162.5439 O.3     1  UNL1       -0.4319
      7 C         140.8069  139.3459  163.6771 C.ar    1  UNL1        0.1388
      8 C         141.6462  138.3833  164.4638 C.ar    1  UNL1        0.0384
      9 C         143.1034  138.6639  164.6825 C.ar    1  UNL1        0.0222
     10 C         143.7214  139.9070  164.1145 C.ar    1  UNL1        0.0813
     11 N         145.1786  140.1876  164.3332 N.ar    1  UNL1       -0.2439
     12 C         145.7965  141.4308  163.7652 C.ar    1  UNL1        0.0986
     13 C         144.9572  142.3935  162.9785 C.ar    1  UNL1        0.0199
     14 C         143.5000  142.1129  162.7598 C.ar    1  UNL1        0.0222
     15 C         142.8821  140.8697  163.3278 C.ar    1  UNL1        0.0201
     16 C         141.4249  140.5891  163.1091 C.ar    1  UNL1        0.0382
     17 C         138.9026  137.6912  163.0564 C.3     1  UNL1        0.2525
     18 O         139.3497  139.0654  163.4584 O.3     1  UNL1       -0.4714
     19 C         141.2401  144.6799  158.7369 C.3     1  UNL1        0.0815
     20 C         139.9387  144.2259  158.1451 C.3     1  UNL1        0.0373
     21 C         139.5568  144.6503  156.7580 C.3     1  UNL1        0.0741
     22 N         140.4765  145.5288  155.9626 N.3     1  UNL1       -0.2689
     23 C         141.7779  145.9829  156.5544 C.3     1  UNL1        0.0741
     24 C         142.1597  145.5584  157.9415 C.3     1  UNL1        0.0373
     25 C         140.0947  145.9533  154.5755 C.3     1  UNL1        0.0991
     26 C         139.9800  147.4113  154.2423 C.ar    1  UNL1       -0.0065
     27 C         140.5905  147.9423  152.9792 C.ar    1  UNL1       -0.0033
     28 C         140.4758  149.4004  152.6461 C.ar    1  UNL1       -0.0048
     29 C         139.7506  150.3274  153.5761 C.ar    1  UNL1       -0.0258
     30 C         139.6359  151.7854  153.2429 C.3     1  UNL1        0.0307
     31 C         139.1402  149.7964  154.8391 C.ar    1  UNL1       -0.0261
     32 C         138.4150  150.7234  155.7691 C.3     1  UNL1        0.0307
     33 C         139.2549  148.3384  155.1722 C.ar    1  UNL1       -0.0075
@<TRIPOS>BOND
     1    17    18    1
     2    18     7    1
     3     7     8   ar
     4     8     9   ar
     5     9    10   ar
     6    10    11   ar
     7    11    12   ar
     8    12    13   ar
     9    13    14   ar
    10    14     1    1
    11     1     2    1
    12     2     3    1
    13     3    19    1
    14    19    20    1
    15    20    21    1
    16    21    22    1
    17    22    25    1
    18    25    26    1
    19    26    27   ar
    20    27    28   ar
    21    28    29   ar
    22    29    30    1
    23    29    31   ar
    24    31    32    1
    25    31    33   ar
    26    22    23    1
    27    23    24    1
    28     3     4   am
    29     4     5    2
    30     4     6    1
    31    14    15   ar
    32    15    16   ar
    33    16     7   ar
    34    15    10   ar
    35     6     1    1
    36    24    19    1
    37    33    26   ar
@<TRIPOS>MOLECULE
*****
 33 37 0 0 0
SMALL
GASTEIGER

@<TRIPOS>ATOM
      1 C         140.6478  141.3937  165.1466 C.3     1  UNL1        0.2126
      2 C         140.1568  142.0167  163.8735 C.3     1  UNL1        0.1448
      3 N         141.3111  142.7251  163.2288 N.am    1  UNL1       -0.2435
      4 C         142.5156  142.5399  164.1034 C.2     1  UNL1        0.4052
      5 O         143.8889  143.0824  163.8392 O.2     1  UNL1       -0.2262
      6 O         142.1056  141.7171  165.2887 O.3     1  UNL1       -0.4319
      7 C         140.7549  142.3463  169.5433 C.ar    1  UNL1        0.1388
      8 C         139.9326  141.5412  170.5053 C.ar    1  UNL1        0.0384
      9 C         139.0745  140.4186  170.0018 C.ar    1  UNL1        0.0222
     10 C         139.0388  140.1011  168.5363 C.ar    1  UNL1        0.0813
     11 N         138.1807  138.9785  168.0328 N.ar    1  UNL1       -0.2439
     12 C         138.1450  138.6610  166.5673 C.ar    1  UNL1        0.0986
     13 C         138.9674  139.4660  165.6051 C.ar    1  UNL1        0.0199
     14 C         139.8254  140.5886  166.1086 C.ar    1  UNL1        0.0222
     15 C         139.8611  140.9061  167.5742 C.ar    1  UNL1        0.0201
     16 C         140.7192  142.0287  168.0777 C.ar    1  UNL1        0.0382
     17 C         142.9890  143.1839  170.5715 C.3     1  UNL1        0.2525
     18 O         141.6130  143.4689  170.0468 O.3     1  UNL1       -0.4714
     19 C         141.2684  143.4853  161.9364 C.3     1  UNL1        0.0815
     20 C         142.1539  143.0770  160.7965 C.3     1  UNL1        0.0373
     21 C         142.1113  143.8371  159.5041 C.3     1  UNL1        0.0741
     22 N         141.1831  145.0056  159.3515 N.3     1  UNL1       -0.2689
     23 C         140.2976  145.4138  160.4913 C.3     1  UNL1        0.0741
     24 C         140.3402  144.6537  161.7838 C.3     1  UNL1        0.0373
     25 C         141.1404  145.7657  158.0591 C.3     1  UNL1        0.0991
     26 C         140.0838  145.4548  157.0407 C.ar    1  UNL1       -0.0065
     27 C         139.5052  146.5544  156.2005 C.ar    1  UNL1       -0.0033
     28 C         138.4486  146.2433  155.1822 C.ar    1  UNL1       -0.0048
     29 C         137.9708  144.8327  155.0041 C.ar    1  UNL1       -0.0258
     30 C         136.9142  144.5216  153.9858 C.3     1  UNL1        0.0307
     31 C         138.5494  143.7331  155.8443 C.ar    1  UNL1       -0.0261
     32 C         138.0716  142.3224  155.6662 C.3     1  UNL1        0.0307
     33 C         139.6060  144.0441  156.8626 C.ar    1  UNL1       -0.0075
@<TRIPOS>BOND
     1    17    18    1
     2    18     7    1
     3     7     8   ar
     4     8     9   ar
     5     9    10   ar
     6    10    11   ar
     7    11    12   ar
     8    12    13   ar
     9    13    14   ar
    10    14     1    1
    11     1     2    1
    12     2     3    1
    13     3    19    1
    14    19    20    1
    15    20    21    1
    16    21    22    1
    17    22    25    1
    18    25    26    1
    19    26    27   ar
    20    27    28   ar
    21    28    29   ar
    22    29    30    1
    23    29    31   ar
    24    31    32    1
    25    31    33   ar
    26    22    23    1
    27    23    24    1
    28     3     4   am
    29     4     5    2
    30     4     6    1
    31    14    15   ar
    32    15    16   ar
    33    16     7   ar
    34    15    10   ar
    35     6     1    1
    36    24    19    1
    37    33    26   ar
@<TRIPOS>MOLECULE
*****
 33 37 0 0 0
SMALL
GASTEIGER

@<TRIPOS>ATOM
      1 C         140.7934  142.7197  163.4025 C.3     1  UNL1        0.2126
      2 C         141.0220  142.7276  161.9201 C.3     1  UNL1        0.1448
      3 N         140.1172  143.7609  161.3171 N.am    1  UNL1       -0.2435
      4 C         139.3295  144.3918  162.4269 C.2     1  UNL1        0.4052
      5 O         138.3040  145.4757  162.2745 O.2     1  UNL1       -0.2262
      6 O         139.7474  143.7482  163.7158 O.3     1  UNL1       -0.4319
      7 C         140.4879  138.2446  163.0428 C.ar    1  UNL1        0.1388
      8 C         141.1832  137.3630  164.0374 C.ar    1  UNL1        0.0384
      9 C         141.9804  137.9731  165.1519 C.ar    1  UNL1        0.0222
     10 C         142.0823  139.4648  165.2718 C.ar    1  UNL1        0.0813
     11 N         142.8795  140.0749  166.3864 N.ar    1  UNL1       -0.2439
     12 C         142.9814  141.5666  166.5063 C.ar    1  UNL1        0.0986
     13 C         142.2860  142.4483  165.5117 C.ar    1  UNL1        0.0199
     14 C         141.4888  141.8382  164.3971 C.ar    1  UNL1        0.0222
     15 C         141.3869  140.3464  164.2772 C.ar    1  UNL1        0.0201
     16 C         140.5897  139.7363  163.1627 C.ar    1  UNL1        0.0382
     17 C         139.5426  138.3634  160.6257 C.3     1  UNL1        0.2525
     18 O         139.6906  137.6344  161.9282 O.3     1  UNL1       -0.4714
     19 C         140.0177  144.1034  159.8601 C.3     1  UNL1        0.0815
     20 C         140.5791  145.3990  159.3541 C.3     1  UNL1        0.0373
     21 C         140.4796  145.7415  157.8971 C.3     1  UNL1        0.0741
     22 N         139.8185  144.7882  156.9460 N.3     1  UNL1       -0.2689
     23 C         139.2571  143.4926  157.4521 C.3     1  UNL1        0.0741
     24 C         139.3567  143.1501  158.9091 C.3     1  UNL1        0.0373
     25 C         139.7190  145.1307  155.4890 C.3     1  UNL1        0.0991
     26 C         139.7209  146.5663  155.0543 C.ar    1  UNL1       -0.0065
     27 C         140.4857  146.9787  153.8315 C.ar    1  UNL1       -0.0033
     28 C         140.4875  148.4143  153.3969 C.ar    1  UNL1       -0.0048
     29 C         139.7247  149.4376  154.1850 C.ar    1  UNL1       -0.0258
     30 C         139.7265  150.8732  153.7503 C.3     1  UNL1        0.0307
     31 C         138.9599  149.0252  155.4077 C.ar    1  UNL1       -0.0261
     32 C         138.1971  150.0484  156.1958 C.3     1  UNL1        0.0307
     33 C         138.9581  147.5895  155.8423 C.ar    1  UNL1       -0.0075
@<TRIPOS>BOND
     1    17    18    1
     2    18     7    1
     3     7     8   ar
     4     8     9   ar
     5     9    10   ar
     6    10    11   ar
     7    11    12   ar
     8    12    13   ar
     9    13    14   ar
    10    14     1    1
    11     1     2    1
    12     2     3    1
    13     3    19    1
    14    19    20    1
    15    20    21    1
    16    21    22    1
    17    22    25    1
    18    25    26    1
    19    26    27   ar
    20    27    28   ar
    21    28    29   ar
    22    29    30    1
    23    29    31   ar
    24    31    32    1
    25    31    33   ar
    26    22    23    1
    27    23    24    1
    28     3     4   am
    29     4     5    2
    30     4     6    1
    31    14    15   ar
    32    15    16   ar
    33    16     7   ar
    34    15    10   ar
    35     6     1    1
    36    24    19    1
    37    33    26   ar
