@<TRIPOS>MOLECULE
*****
 38 43 0 0 0
SMALL
GASTEIGER

@<TRIPOS>ATOM
      1 C         140.7952  145.5045  159.4658 C.3     1  UNL1        0.0294
      2 C         140.1507  145.9176  160.7558 C.3     1  UNL1        0.0730
      3 C         142.1912  141.1429  168.9399 C.ar    1  UNL1        0.2057
      4 N         140.8487  141.6838  168.5460 N.ar    1  UNL1       -0.2121
      5 C         140.9903  142.3458  167.2075 C.ar    1  UNL1        0.1179
      6 C         140.0018  143.0516  166.3273 C.ar    1  UNL1        0.0178
      7 C         140.4433  143.6257  165.0137 C.ar    1  UNL1       -0.0233
      8 C         141.8732  143.4941  164.5804 C.ar    1  UNL1       -0.0256
      9 C         142.8618  142.7883  165.4605 C.ar    1  UNL1        0.0101
     10 C         144.2918  142.6566  165.0272 C.3     1  UNL1        0.0339
     11 C         142.4203  142.2142  166.7742 C.ar    1  UNL1        0.1600
     12 O         143.1625  141.4707  167.8449 O.2     1  UNL1       -0.4387
     13 C         142.5180  143.9897  163.3199 C.3     1  UNL1        0.0431
     14 C         141.8918  144.7394  162.1815 C.3     1  UNL1        0.0768
     15 N         140.4665  145.1786  162.0224 N.3     1  UNL1       -0.2720
     16 C         139.3151  144.9767  162.9624 C.3     1  UNL1        0.0768
     17 C         139.3048  144.2856  164.2936 C.3     1  UNL1        0.0434
     18 C         142.6545  138.9113  170.1871 C.3     1  UNL1        0.0102
     19 C         142.5070  140.4039  170.2065 C.3     1  UNL1        0.0853
     20 C         140.0120  144.7239  158.4523 C.3     1  UNL1        0.0666
     21 S         140.2229  143.2449  158.3184 S.3     1  UNL1       -0.0756
     22 C         140.6296  142.4341  159.5130 C.ar    1  UNL1        0.1932
     23 N         141.9895  141.8522  159.7622 N.ar    1  UNL1       -0.1221
     24 N         141.9481  141.1213  161.0715 N.ar    1  UNL1       -0.1282
     25 C         140.5627  141.2515  161.6314 C.ar    1  UNL1        0.1669
     26 N         139.7477  142.0629  160.6683 N.ar    1  UNL1       -0.2884
     27 C         138.3044  142.4372  160.8317 C.3     1  UNL1        0.1340
     28 C         140.0773  140.6721  162.9271 C.ar    1  UNL1        0.0374
     29 C         138.6284  140.7786  163.3002 C.ar    1  UNL1        0.0031
     30 C         138.1430  140.1992  164.5959 C.ar    1  UNL1        0.0016
     31 C         139.1065  139.5132  165.5184 C.ar    1  UNL1        0.0191
     32 C         140.5555  139.4067  165.1452 C.ar    1  UNL1        0.0810
     33 N         141.5191  138.7208  166.0677 N.ar    1  UNL1       -0.2497
     34 C         142.9681  138.6143  165.6946 C.ar    1  UNL1        0.0593
     35 C         143.9316  137.9284  166.6171 C.3     1  UNL1        0.0521
     36 C         143.4534  139.1937  164.3989 C.ar    1  UNL1        0.0147
     37 C         142.4898  139.8797  163.4764 C.ar    1  UNL1        0.0028
     38 C         141.0408  139.9862  163.8496 C.ar    1  UNL1        0.0206
@<TRIPOS>BOND
     1    18    19    1
     2    19     3    1
     3     3     4   ar
     4     4     5   ar
     5     5     6   ar
     6     6     7   ar
     7     7     8   ar
     8     8     9   ar
     9     9    10    1
    10     9    11   ar
    11    11    12   ar
    12     8    13    1
    13    13    14    1
    14    14    15    1
    15    15     2    1
    16     2     1    1
    17     1    20    1
    18    20    21    1
    19    21    22    1
    20    22    23   ar
    21    23    24   ar
    22    24    25   ar
    23    25    28    1
    24    28    29   ar
    25    29    30   ar
    26    30    31   ar
    27    31    32   ar
    28    32    33   ar
    29    33    34   ar
    30    34    35    1
    31    34    36   ar
    32    36    37   ar
    33    37    38   ar
    34    25    26   ar
    35    26    27    1
    36    15    16    1
    37    16    17    1
    38    12     3   ar
    39    26    22   ar
    40    11     5   ar
    41    38    28   ar
    42    17     7    1
    43    38    32   ar
@<TRIPOS>MOLECULE
*****
 38 43 0 0 0
SMALL
GASTEIGER

@<TRIPOS>ATOM
      1 C         141.0925  145.1026  159.0138 C.3     1  UNL1        0.0294
      2 C         140.6368  145.6982  160.3130 C.3     1  UNL1        0.0730
      3 C         141.1839  140.5083  168.4804 C.ar    1  UNL1        0.2057
      4 N         140.2295  141.6343  168.2135 N.ar    1  UNL1       -0.2121
      5 C         140.4945  142.1484  166.8295 C.ar    1  UNL1        0.1179
      6 C         139.8620  143.2481  166.0291 C.ar    1  UNL1        0.0178
      7 C         140.3479  143.5396  164.6402 C.ar    1  UNL1       -0.0233
      8 C         141.4660  142.7314  164.0518 C.ar    1  UNL1       -0.0256
      9 C         142.0985  141.6317  164.8521 C.ar    1  UNL1        0.0101
     10 C         143.2167  140.8234  164.2636 C.3     1  UNL1        0.0339
     11 C         141.6127  141.3402  166.2410 C.ar    1  UNL1        0.1600
     12 O         142.0388  140.3266  167.2614 O.2     1  UNL1       -0.4387
     13 C         142.0971  142.8554  162.6966 C.3     1  UNL1        0.0431
     14 C         141.7657  143.8184  161.5952 C.3     1  UNL1        0.0768
     15 N         140.7215  144.8949  161.5770 N.3     1  UNL1       -0.2720
     16 C         139.7507  145.2747  162.6556 C.3     1  UNL1        0.0768
     17 C         139.5844  144.6715  164.0189 C.3     1  UNL1        0.0434
     18 C         142.4770  138.8589  170.0158 C.3     1  UNL1        0.0102
     19 C         141.2686  139.7051  169.7444 C.3     1  UNL1        0.0853
     20 C         140.0962  144.8157  157.9298 C.3     1  UNL1        0.0666
     21 S         139.4412  143.4687  157.8505 S.3     1  UNL1       -0.0756
     22 C         139.2496  142.6534  159.0949 C.ar    1  UNL1        0.1932
     23 N         138.1438  142.8179  160.0951 N.ar    1  UNL1       -0.1221
     24 N         138.3408  141.7967  161.1760 N.ar    1  UNL1       -0.1282
     25 C         139.5683  141.0011  160.8439 C.ar    1  UNL1        0.1669
     26 N         140.1300  141.5306  159.5577 N.ar    1  UNL1       -0.2884
     27 C         141.3566  141.0259  158.8573 C.3     1  UNL1        0.1340
     28 C         140.1347  139.8740  161.6554 C.ar    1  UNL1        0.0374
     29 C         141.2186  139.0089  161.0837 C.ar    1  UNL1        0.0031
     30 C         141.7851  137.8818  161.8953 C.ar    1  UNL1        0.0016
     31 C         141.2677  137.6196  163.2786 C.ar    1  UNL1        0.0191
     32 C         140.1838  138.4846  163.8503 C.ar    1  UNL1        0.0810
     33 N         139.6663  138.2225  165.2336 N.ar    1  UNL1       -0.2497
     34 C         138.5824  139.0876  165.8054 C.ar    1  UNL1        0.0593
     35 C         138.0649  138.8255  167.1887 C.3     1  UNL1        0.0521
     36 C         138.0160  140.2148  164.9937 C.ar    1  UNL1        0.0147
     37 C         138.5334  140.4769  163.6104 C.ar    1  UNL1        0.0028
     38 C         139.6173  139.6118  163.0387 C.ar    1  UNL1        0.0206
@<TRIPOS>BOND
     1    18    19    1
     2    19     3    1
     3     3     4   ar
     4     4     5   ar
     5     5     6   ar
     6     6     7   ar
     7     7     8   ar
     8     8     9   ar
     9     9    10    1
    10     9    11   ar
    11    11    12   ar
    12     8    13    1
    13    13    14    1
    14    14    15    1
    15    15     2    1
    16     2     1    1
    17     1    20    1
    18    20    21    1
    19    21    22    1
    20    22    23   ar
    21    23    24   ar
    22    24    25   ar
    23    25    28    1
    24    28    29   ar
    25    29    30   ar
    26    30    31   ar
    27    31    32   ar
    28    32    33   ar
    29    33    34   ar
    30    34    35    1
    31    34    36   ar
    32    36    37   ar
    33    37    38   ar
    34    25    26   ar
    35    26    27    1
    36    15    16    1
    37    16    17    1
    38    12     3   ar
    39    26    22   ar
    40    11     5   ar
    41    38    28   ar
    42    17     7    1
    43    38    32   ar
@<TRIPOS>MOLECULE
*****
 38 43 0 0 0
SMALL
GASTEIGER

@<TRIPOS>ATOM
      1 C         142.6398  139.8632  169.2942 C.3     1  UNL1        0.0294
      2 C         142.8666  139.1029  168.0212 C.3     1  UNL1        0.0730
      3 C         142.2810  143.6575  159.4858 C.ar    1  UNL1        0.2057
      4 N         141.8398  142.2517  159.7671 N.ar    1  UNL1       -0.2121
      5 C         142.1149  141.9601  161.2125 C.ar    1  UNL1        0.1179
      6 C         141.8878  140.7368  162.0505 C.ar    1  UNL1        0.0178
      7 C         142.2719  140.7392  163.5005 C.ar    1  UNL1       -0.0233
      8 C         142.8831  141.9646  164.1124 C.ar    1  UNL1       -0.0256
      9 C         143.1102  143.1878  163.2745 C.ar    1  UNL1        0.0101
     10 C         143.7215  144.4133  163.8866 C.3     1  UNL1        0.0339
     11 C         142.7261  143.1856  161.8245 C.ar    1  UNL1        0.1600
     12 O         142.8288  144.2346  160.7573 O.2     1  UNL1       -0.4387
     13 C         143.3351  142.1777  165.5268 C.3     1  UNL1        0.0431
     14 C         143.2874  141.2177  166.6785 C.3     1  UNL1        0.0768
     15 N         142.7760  139.8078  166.7002 N.3     1  UNL1       -0.2720
     16 C         142.1860  139.0094  165.5757 C.3     1  UNL1        0.0768
     17 C         141.9616  139.4240  164.1517 C.3     1  UNL1        0.0434
     18 C         141.5887  145.7342  158.0865 C.3     1  UNL1        0.0102
     19 C         142.1904  144.3624  158.1648 C.3     1  UNL1        0.0853
     20 C         141.4098  139.6050  170.1131 C.3     1  UNL1        0.0666
     21 S         140.1428  140.3521  169.8193 S.3     1  UNL1       -0.0756
     22 C         140.0078  141.1267  168.5419 C.ar    1  UNL1        0.1932
     23 N         140.4409  142.5457  168.3213 N.ar    1  UNL1       -0.1221
     24 N         140.1168  142.9143  166.9038 N.ar    1  UNL1       -0.1282
     25 C         139.4834  141.7229  166.2484 C.ar    1  UNL1        0.1669
     26 N         139.4161  140.6181  167.2608 N.ar    1  UNL1       -0.2884
     27 C         138.8554  139.2457  167.0322 C.3     1  UNL1        0.1340
     28 C         139.0019  141.6493  164.8297 C.ar    1  UNL1        0.0374
     29 C         138.3327  140.4039  164.3285 C.ar    1  UNL1        0.0031
     30 C         137.8512  140.3303  162.9098 C.ar    1  UNL1        0.0016
     31 C         138.0389  141.5020  161.9923 C.ar    1  UNL1        0.0191
     32 C         138.7081  142.7473  162.4935 C.ar    1  UNL1        0.0810
     33 N         138.8959  143.9190  161.5760 N.ar    1  UNL1       -0.2497
     34 C         139.5652  145.1644  162.0771 C.ar    1  UNL1        0.0593
     35 C         139.7529  146.3361  161.1597 C.3     1  UNL1        0.0521
     36 C         140.0467  145.2380  163.4959 C.ar    1  UNL1        0.0147
     37 C         139.8589  144.0663  164.4134 C.ar    1  UNL1        0.0028
     38 C         139.1896  142.8209  163.9122 C.ar    1  UNL1        0.0206
@<TRIPOS>BOND
     1    18    19    1
     2    19     3    1
     3     3     4   ar
     4     4     5   ar
     5     5     6   ar
     6     6     7   ar
     7     7     8   ar
     8     8     9   ar
     9     9    10    1
    10     9    11   ar
    11    11    12   ar
    12     8    13    1
    13    13    14    1
    14    14    15    1
    15    15     2    1
    16     2     1    1
    17     1    20    1
    18    20    21    1
    19    21    22    1
    20    22    23   ar
    21    23    24   ar
    22    24    25   ar
    23    25    28    1
    24    28    29   ar
    25    29    30   ar
    26    30    31   ar
    27    31    32   ar
    28    32    33   ar
    29    33    34   ar
    30    34    35    1
    31    34    36   ar
    32    36    37   ar
    33    37    38   ar
    34    25    26   ar
    35    26    27    1
    36    15    16    1
    37    16    17    1
    38    12     3   ar
    39    26    22   ar
    40    11     5   ar
    41    38    28   ar
    42    17     7    1
    43    38    32   ar
@<TRIPOS>MOLECULE
*****
 38 43 0 0 0
SMALL
GASTEIGER

@<TRIPOS>ATOM
      1 C         139.8002  138.5382  158.4789 C.3     1  UNL1        0.0294
      2 C         138.7743  139.3451  159.2182 C.3     1  UNL1        0.0730
      3 C         139.7276  140.8354  168.7477 C.ar    1  UNL1        0.2057
      4 N         139.2329  139.5775  168.0971 N.ar    1  UNL1       -0.2121
      5 C         139.2485  139.7869  166.6119 C.ar    1  UNL1        0.1179
      6 C         138.8685  138.8935  165.4683 C.ar    1  UNL1        0.0178
      7 C         138.9929  139.3874  164.0574 C.ar    1  UNL1       -0.0233
      8 C         139.4971  140.7745  163.7901 C.ar    1  UNL1       -0.0256
      9 C         139.8770  141.6679  164.9335 C.ar    1  UNL1        0.0101
     10 C         140.3813  143.0551  164.6661 C.3     1  UNL1        0.0339
     11 C         139.7527  141.1741  166.3445 C.ar    1  UNL1        0.1600
     12 O         140.0488  141.8220  167.6645 O.2     1  UNL1       -0.4387
     13 C         139.6962  141.4591  162.4703 C.3     1  UNL1        0.0431
     14 C         139.4401  140.9255  161.0919 C.3     1  UNL1        0.0768
     15 N         138.9218  139.5758  160.6930 N.3     1  UNL1       -0.2720
     16 C         138.5315  138.4260  161.5738 C.3     1  UNL1        0.0768
     17 C         138.5632  138.3422  163.0711 C.3     1  UNL1        0.0434
     18 C         140.1065  142.4529  170.7453 C.3     1  UNL1        0.0102
     19 C         139.8752  141.0660  170.2225 C.3     1  UNL1        0.0853
     20 C         140.3790  139.0557  157.1955 C.3     1  UNL1        0.0666
     21 S         141.8097  139.5033  157.1447 S.3     1  UNL1       -0.0756
     22 C         142.6029  139.6251  158.4120 C.ar    1  UNL1        0.1932
     23 N         143.5810  138.6180  158.9402 N.ar    1  UNL1       -0.1221
     24 N         144.1398  139.1459  160.2283 N.ar    1  UNL1       -0.1282
     25 C         143.5070  140.4792  160.4961 C.ar    1  UNL1        0.1669
     26 N         142.5571  140.7754  159.3736 N.ar    1  UNL1       -0.2884
     27 C         141.7102  142.0059  159.2368 C.3     1  UNL1        0.1340
     28 C         143.7768  141.3615  161.6788 C.ar    1  UNL1        0.0374
     29 C         144.2968  142.7534  161.4732 C.ar    1  UNL1        0.0031
     30 C         144.5665  143.6356  162.6559 C.ar    1  UNL1        0.0016
     31 C         144.3162  143.1261  164.0443 C.ar    1  UNL1        0.0191
     32 C         143.7962  141.7343  164.2500 C.ar    1  UNL1        0.0810
     33 N         143.5459  141.2247  165.6383 N.ar    1  UNL1       -0.2497
     34 C         143.0258  139.8328  165.8441 C.ar    1  UNL1        0.0593
     35 C         142.7755  139.3233  167.2325 C.3     1  UNL1        0.0521
     36 C         142.7561  138.9506  164.6613 C.ar    1  UNL1        0.0147
     37 C         143.0064  139.4602  163.2729 C.ar    1  UNL1        0.0028
     38 C         143.5265  140.8520  163.0672 C.ar    1  UNL1        0.0206
@<TRIPOS>BOND
     1    18    19    1
     2    19     3    1
     3     3     4   ar
     4     4     5   ar
     5     5     6   ar
     6     6     7   ar
     7     7     8   ar
     8     8     9   ar
     9     9    10    1
    10     9    11   ar
    11    11    12   ar
    12     8    13    1
    13    13    14    1
    14    14    15    1
    15    15     2    1
    16     2     1    1
    17     1    20    1
    18    20    21    1
    19    21    22    1
    20    22    23   ar
    21    23    24   ar
    22    24    25   ar
    23    25    28    1
    24    28    29   ar
    25    29    30   ar
    26    30    31   ar
    27    31    32   ar
    28    32    33   ar
    29    33    34   ar
    30    34    35    1
    31    34    36   ar
    32    36    37   ar
    33    37    38   ar
    34    25    26   ar
    35    26    27    1
    36    15    16    1
    37    16    17    1
    38    12     3   ar
    39    26    22   ar
    40    11     5   ar
    41    38    28   ar
    42    17     7    1
    43    38    32   ar
@<TRIPOS>MOLECULE
*****
 38 43 0 0 0
SMALL
GASTEIGER

@<TRIPOS>ATOM
      1 C         140.0565  144.4721  158.5974 C.3     1  UNL1        0.0294
      2 C         140.8659  145.0361  159.7274 C.3     1  UNL1        0.0730
      3 C         141.1531  140.4336  168.2524 C.ar    1  UNL1        0.2057
      4 N         142.2543  141.2624  167.6603 N.ar    1  UNL1       -0.2121
      5 C         141.7814  141.7832  166.3355 C.ar    1  UNL1        0.1179
      6 C         142.4397  142.6535  165.3063 C.ar    1  UNL1        0.0178
      7 C         141.7044  143.0169  164.0503 C.ar    1  UNL1       -0.0233
      8 C         140.3111  142.5100  163.8237 C.ar    1  UNL1       -0.0256
      9 C         139.6528  141.6397  164.8528 C.ar    1  UNL1        0.0101
     10 C         138.2594  141.1328  164.6261 C.3     1  UNL1        0.0339
     11 C         140.3880  141.2763  166.1088 C.ar    1  UNL1        0.1600
     12 O         139.9997  140.4422  167.2935 O.2     1  UNL1       -0.4387
     13 C         139.4075  142.7508  162.6507 C.3     1  UNL1        0.0431
     14 C         139.6743  143.5581  161.4149 C.3     1  UNL1        0.0768
     15 N         140.9104  144.3238  161.0468 N.3     1  UNL1       -0.2720
     16 C         142.1851  144.4715  161.8235 C.3     1  UNL1        0.0768
     17 C         142.5385  143.8898  163.1602 C.3     1  UNL1        0.0434
     18 C         142.4400  138.9915  169.9886 C.3     1  UNL1        0.0102
     19 C         141.1975  139.7213  169.5718 C.3     1  UNL1        0.0853
     20 C         140.7447  143.8325  157.4280 C.3     1  UNL1        0.0666
     21 S         140.8061  142.3378  157.3197 S.3     1  UNL1       -0.0756
     22 C         141.1712  141.5133  158.5183 C.ar    1  UNL1        0.1932
     23 N         142.5617  141.2402  159.0102 N.ar    1  UNL1       -0.1221
     24 N         142.4600  140.3752  160.2314 N.ar    1  UNL1       -0.1282
     25 C         141.0065  140.1137  160.4943 C.ar    1  UNL1        0.1669
     26 N         140.2100  140.8170  159.4355 N.ar    1  UNL1       -0.2884
     27 C         138.7149  140.8230  159.3152 C.3     1  UNL1        0.1340
     28 C         140.4477  139.2929  161.6186 C.ar    1  UNL1        0.0374
     29 C         139.0544  138.7448  161.5266 C.ar    1  UNL1        0.0031
     30 C         138.4956  137.9240  162.6508 C.ar    1  UNL1        0.0016
     31 C         139.3299  137.6512  163.8671 C.ar    1  UNL1        0.0191
     32 C         140.7232  138.1993  163.9591 C.ar    1  UNL1        0.0810
     33 N         141.5576  137.9266  165.1754 N.ar    1  UNL1       -0.2497
     34 C         142.9509  138.4746  165.2675 C.ar    1  UNL1        0.0593
     35 C         143.7853  138.2018  166.4838 C.3     1  UNL1        0.0521
     36 C         143.5097  139.2954  164.1432 C.ar    1  UNL1        0.0147
     37 C         142.6753  139.5682  162.9269 C.ar    1  UNL1        0.0028
     38 C         141.2820  139.0201  162.8349 C.ar    1  UNL1        0.0206
@<TRIPOS>BOND
     1    18    19    1
     2    19     3    1
     3     3     4   ar
     4     4     5   ar
     5     5     6   ar
     6     6     7   ar
     7     7     8   ar
     8     8     9   ar
     9     9    10    1
    10     9    11   ar
    11    11    12   ar
    12     8    13    1
    13    13    14    1
    14    14    15    1
    15    15     2    1
    16     2     1    1
    17     1    20    1
    18    20    21    1
    19    21    22    1
    20    22    23   ar
    21    23    24   ar
    22    24    25   ar
    23    25    28    1
    24    28    29   ar
    25    29    30   ar
    26    30    31   ar
    27    31    32   ar
    28    32    33   ar
    29    33    34   ar
    30    34    35    1
    31    34    36   ar
    32    36    37   ar
    33    37    38   ar
    34    25    26   ar
    35    26    27    1
    36    15    16    1
    37    16    17    1
    38    12     3   ar
    39    26    22   ar
    40    11     5   ar
    41    38    28   ar
    42    17     7    1
    43    38    32   ar
@<TRIPOS>MOLECULE
*****
 38 43 0 0 0
SMALL
GASTEIGER

@<TRIPOS>ATOM
      1 C         144.0607  140.4686  158.0879 C.3     1  UNL1        0.0294
      2 C         144.1171  141.7047  158.9359 C.3     1  UNL1        0.0730
      3 C         140.5283  141.5740  167.9383 C.ar    1  UNL1        0.2057
      4 N         141.2307  140.4397  167.2526 N.ar    1  UNL1       -0.2121
      5 C         141.6153  140.8968  165.8767 C.ar    1  UNL1        0.1179
      6 C         142.3286  140.2059  164.7524 C.ar    1  UNL1        0.0178
      7 C         142.5773  140.9318  163.4635 C.ar    1  UNL1       -0.0233
      8 C         142.1127  142.3484  163.2989 C.ar    1  UNL1       -0.0256
      9 C         141.3993  143.0393  164.4231 C.ar    1  UNL1        0.0101
     10 C         140.9347  144.4560  164.2584 C.3     1  UNL1        0.0339
     11 C         141.1506  142.3135  165.7120 C.ar    1  UNL1        0.1600
     12 O         140.4788  142.7320  166.9862 O.2     1  UNL1       -0.4387
     13 C         142.2572  143.2476  162.1069 C.3     1  UNL1        0.0431
     14 C         142.9021  142.9520  160.7852 C.3     1  UNL1        0.0768
     15 N         143.5617  141.6845  160.3291 N.3     1  UNL1       -0.2720
     16 C         143.7393  140.3993  161.0819 C.3     1  UNL1        0.0768
     17 C         143.3012  140.0643  162.4769 C.3     1  UNL1        0.0434
     18 C         139.0473  140.4515  169.7541 C.3     1  UNL1        0.0102
     19 C         139.9728  141.5538  169.3316 C.3     1  UNL1        0.0853
     20 C         143.1144  140.3984  156.9263 C.3     1  UNL1        0.0666
     21 S         141.7612  139.7744  157.0979 S.3     1  UNL1       -0.0756
     22 C         141.1456  139.6821  158.4627 C.ar    1  UNL1        0.1932
     23 N         141.1432  138.4718  159.3488 N.ar    1  UNL1       -0.1221
     24 N         140.4204  138.8254  160.6147 N.ar    1  UNL1       -0.1282
     25 C         139.9761  140.2544  160.5109 C.ar    1  UNL1        0.1669
     26 N         140.4242  140.7838  159.1809 N.ar    1  UNL1       -0.2884
     27 C         140.1918  142.1713  158.6605 C.3     1  UNL1        0.1340
     28 C         139.2168  141.0195  161.5540 C.ar    1  UNL1        0.0374
     29 C         138.7618  142.4210  161.2732 C.ar    1  UNL1        0.0031
     30 C         138.0025  143.1862  162.3163 C.ar    1  UNL1        0.0016
     31 C         137.6983  142.5500  163.6402 C.ar    1  UNL1        0.0191
     32 C         138.1533  141.1485  163.9209 C.ar    1  UNL1        0.0810
     33 N         137.8491  140.5122  165.2447 N.ar    1  UNL1       -0.2497
     34 C         138.3042  139.1107  165.5256 C.ar    1  UNL1        0.0593
     35 C         138.0000  138.4744  166.8494 C.3     1  UNL1        0.0521
     36 C         139.0634  138.3455  164.4824 C.ar    1  UNL1        0.0147
     37 C         139.3676  138.9818  163.1586 C.ar    1  UNL1        0.0028
     38 C         138.9126  140.3833  162.8778 C.ar    1  UNL1        0.0206
@<TRIPOS>BOND
     1    18    19    1
     2    19     3    1
     3     3     4   ar
     4     4     5   ar
     5     5     6   ar
     6     6     7   ar
     7     7     8   ar
     8     8     9   ar
     9     9    10    1
    10     9    11   ar
    11    11    12   ar
    12     8    13    1
    13    13    14    1
    14    14    15    1
    15    15     2    1
    16     2     1    1
    17     1    20    1
    18    20    21    1
    19    21    22    1
    20    22    23   ar
    21    23    24   ar
    22    24    25   ar
    23    25    28    1
    24    28    29   ar
    25    29    30   ar
    26    30    31   ar
    27    31    32   ar
    28    32    33   ar
    29    33    34   ar
    30    34    35    1
    31    34    36   ar
    32    36    37   ar
    33    37    38   ar
    34    25    26   ar
    35    26    27    1
    36    15    16    1
    37    16    17    1
    38    12     3   ar
    39    26    22   ar
    40    11     5   ar
    41    38    28   ar
    42    17     7    1
    43    38    32   ar
@<TRIPOS>MOLECULE
*****
 38 43 0 0 0
SMALL
GASTEIGER

@<TRIPOS>ATOM
      1 C         144.1763  142.2928  158.7723 C.3     1  UNL1        0.0294
      2 C         144.9317  142.7417  159.9880 C.3     1  UNL1        0.0730
      3 C         141.9734  140.0253  168.8090 C.ar    1  UNL1        0.2057
      4 N         142.4858  141.3832  168.4302 N.ar    1  UNL1       -0.2121
      5 C         142.8283  141.3587  166.9701 C.ar    1  UNL1        0.1179
      6 C         143.3751  142.4094  166.0497 C.ar    1  UNL1        0.0178
      7 C         143.6212  142.0868  164.6055 C.ar    1  UNL1       -0.0233
      8 C         143.3206  140.7138  164.0819 C.ar    1  UNL1       -0.0256
      9 C         142.7738  139.6632  165.0023 C.ar    1  UNL1        0.0101
     10 C         142.4732  138.2901  164.4786 C.3     1  UNL1        0.0339
     11 C         142.5276  139.9856  166.4464 C.ar    1  UNL1        0.1600
     12 O         141.9993  139.1615  167.5830 O.2     1  UNL1       -0.4387
     13 C         143.4911  140.1863  162.6881 C.3     1  UNL1        0.0431
     14 C         144.0044  140.9018  161.4736 C.3     1  UNL1        0.0768
     15 N         144.4738  142.3212  161.3532 N.3     1  UNL1       -0.2720
     16 C         144.5461  143.3760  162.4173 C.3     1  UNL1        0.0768
     17 C         144.1666  143.2717  163.8647 C.3     1  UNL1        0.0434
     18 C         140.2292  140.1387  170.7313 C.3     1  UNL1        0.0102
     19 C         141.5156  139.6048  170.1742 C.3     1  UNL1        0.0853
     20 C         143.3295  143.2701  158.0121 C.3     1  UNL1        0.0666
     21 S         141.8460  143.3057  158.2304 S.3     1  UNL1       -0.0756
     22 C         141.2505  142.6532  159.4427 C.ar    1  UNL1        0.1932
     23 N         140.6518  141.2791  159.4999 N.ar    1  UNL1       -0.1221
     24 N         140.1804  141.0369  160.9032 N.ar    1  UNL1       -0.1282
     25 C         140.4878  142.2614  161.7132 C.ar    1  UNL1        0.1669
     26 N         141.1491  143.2604  160.8106 N.ar    1  UNL1       -0.2884
     27 C         141.6254  144.6265  161.2065 C.3     1  UNL1        0.1340
     28 C         140.1866  142.4532  163.1701 C.ar    1  UNL1        0.0374
     29 C         140.4263  143.7854  163.8164 C.ar    1  UNL1        0.0031
     30 C         140.1252  143.9773  165.2733 C.ar    1  UNL1        0.0016
     31 C         139.5844  142.8370  166.0839 C.ar    1  UNL1        0.0191
     32 C         139.3447  141.5048  165.4376 C.ar    1  UNL1        0.0810
     33 N         138.8039  140.3644  166.2482 N.ar    1  UNL1       -0.2497
     34 C         138.5641  139.0321  165.6019 C.ar    1  UNL1        0.0593
     35 C         138.0233  137.8917  166.4124 C.3     1  UNL1        0.0521
     36 C         138.8653  138.8403  164.1450 C.ar    1  UNL1        0.0147
     37 C         139.4061  139.9807  163.3344 C.ar    1  UNL1        0.0028
     38 C         139.6458  141.3129  163.9807 C.ar    1  UNL1        0.0206
@<TRIPOS>BOND
     1    18    19    1
     2    19     3    1
     3     3     4   ar
     4     4     5   ar
     5     5     6   ar
     6     6     7   ar
     7     7     8   ar
     8     8     9   ar
     9     9    10    1
    10     9    11   ar
    11    11    12   ar
    12     8    13    1
    13    13    14    1
    14    14    15    1
    15    15     2    1
    16     2     1    1
    17     1    20    1
    18    20    21    1
    19    21    22    1
    20    22    23   ar
    21    23    24   ar
    22    24    25   ar
    23    25    28    1
    24    28    29   ar
    25    29    30   ar
    26    30    31   ar
    27    31    32   ar
    28    32    33   ar
    29    33    34   ar
    30    34    35    1
    31    34    36   ar
    32    36    37   ar
    33    37    38   ar
    34    25    26   ar
    35    26    27    1
    36    15    16    1
    37    16    17    1
    38    12     3   ar
    39    26    22   ar
    40    11     5   ar
    41    38    28   ar
    42    17     7    1
    43    38    32   ar
@<TRIPOS>MOLECULE
*****
 38 43 0 0 0
SMALL
GASTEIGER

@<TRIPOS>ATOM
      1 C         139.0924  141.8666  158.0318 C.3     1  UNL1        0.0294
      2 C         137.9506  141.6410  158.9782 C.3     1  UNL1        0.0730
      3 C         139.6762  140.2873  168.4191 C.ar    1  UNL1        0.2057
      4 N         139.1120  139.2708  167.4713 N.ar    1  UNL1       -0.2121
      5 C         139.0136  139.9054  166.1157 C.ar    1  UNL1        0.1179
      6 C         138.5306  139.3824  164.7954 C.ar    1  UNL1        0.0178
      7 C         138.5510  140.2683  163.5850 C.ar    1  UNL1       -0.0233
      8 C         139.0544  141.6769  163.6950 C.ar    1  UNL1       -0.0256
      9 C         139.5374  142.1999  165.0153 C.ar    1  UNL1        0.0101
     10 C         140.0408  143.6086  165.1252 C.3     1  UNL1        0.0339
     11 C         139.5170  141.3141  166.2257 C.ar    1  UNL1        0.1600
     12 O         139.9265  141.5502  167.6493 O.2     1  UNL1       -0.4387
     13 C         139.1595  142.7191  162.6212 C.3     1  UNL1        0.0431
     14 C         138.7871  142.6098  161.1722 C.3     1  UNL1        0.0768
     15 N         138.2177  141.4315  160.4393 N.3     1  UNL1       -0.2720
     16 C         137.8800  140.0714  160.9741 C.3     1  UNL1        0.0768
     17 C         138.0284  139.5537  162.3741 C.3     1  UNL1        0.0434
     18 C         141.3548  140.0366  170.3863 C.3     1  UNL1        0.0102
     19 C         139.9433  140.0779  169.8802 C.3     1  UNL1        0.0853
     20 C         139.4935  143.2634  157.6599 C.3     1  UNL1        0.0666
     21 S         140.9337  143.6755  157.7364 S.3     1  UNL1       -0.0756
     22 C         141.7903  143.2009  158.8726 C.ar    1  UNL1        0.1932
     23 N         142.7195  142.0237  158.8442 N.ar    1  UNL1       -0.1221
     24 N         143.3717  141.9152  160.1906 N.ar    1  UNL1       -0.1282
     25 C         142.8455  143.0254  161.0512 C.ar    1  UNL1        0.1669
     26 N         141.8681  143.8200  160.2366 N.ar    1  UNL1       -0.2884
     27 C         141.1030  145.0226  160.7040 C.3     1  UNL1        0.1340
     28 C         143.2292  143.2940  162.4762 C.ar    1  UNL1        0.0374
     29 C         143.7556  144.6423  162.8698 C.ar    1  UNL1        0.0031
     30 C         144.1394  144.9108  164.2948 C.ar    1  UNL1        0.0016
     31 C         143.9968  143.8311  165.3262 C.ar    1  UNL1        0.0191
     32 C         143.4705  142.4828  164.9325 C.ar    1  UNL1        0.0810
     33 N         143.3279  141.4029  165.9639 N.ar    1  UNL1       -0.2497
     34 C         142.8015  140.0546  165.5703 C.ar    1  UNL1        0.0593
     35 C         142.6589  138.9748  166.6016 C.3     1  UNL1        0.0521
     36 C         142.4177  139.7861  164.1452 C.ar    1  UNL1        0.0147
     37 C         142.5603  140.8659  163.1139 C.ar    1  UNL1        0.0028
     38 C         143.0867  142.2142  163.5076 C.ar    1  UNL1        0.0206
@<TRIPOS>BOND
     1    18    19    1
     2    19     3    1
     3     3     4   ar
     4     4     5   ar
     5     5     6   ar
     6     6     7   ar
     7     7     8   ar
     8     8     9   ar
     9     9    10    1
    10     9    11   ar
    11    11    12   ar
    12     8    13    1
    13    13    14    1
    14    14    15    1
    15    15     2    1
    16     2     1    1
    17     1    20    1
    18    20    21    1
    19    21    22    1
    20    22    23   ar
    21    23    24   ar
    22    24    25   ar
    23    25    28    1
    24    28    29   ar
    25    29    30   ar
    26    30    31   ar
    27    31    32   ar
    28    32    33   ar
    29    33    34   ar
    30    34    35    1
    31    34    36   ar
    32    36    37   ar
    33    37    38   ar
    34    25    26   ar
    35    26    27    1
    36    15    16    1
    37    16    17    1
    38    12     3   ar
    39    26    22   ar
    40    11     5   ar
    41    38    28   ar
    42    17     7    1
    43    38    32   ar
@<TRIPOS>MOLECULE
*****
 38 43 0 0 0
SMALL
GASTEIGER

@<TRIPOS>ATOM
      1 C         140.3103  138.2120  157.9883 C.3     1  UNL1        0.0294
      2 C         141.6306  138.0462  158.6807 C.3     1  UNL1        0.0730
      3 C         142.2971  139.4566  168.2467 C.ar    1  UNL1        0.2057
      4 N         143.4195  139.0613  167.3333 N.ar    1  UNL1       -0.2121
      5 C         142.8695  138.9557  165.9419 C.ar    1  UNL1        0.1179
      6 C         143.5113  138.6016  164.6331 C.ar    1  UNL1        0.0178
      7 C         142.6908  138.5776  163.3776 C.ar    1  UNL1       -0.0233
      8 C         141.2286  138.9076  163.4309 C.ar    1  UNL1       -0.0256
      9 C         140.5867  139.2617  164.7396 C.ar    1  UNL1        0.0101
     10 C         139.1245  139.5917  164.7928 C.3     1  UNL1        0.0339
     11 C         141.4072  139.2857  165.9951 C.ar    1  UNL1        0.1600
     12 O         141.0535  139.5953  167.4195 O.2     1  UNL1       -0.4387
     13 C         140.2362  138.9427  162.3066 C.3     1  UNL1        0.0431
     14 C         140.4610  138.6565  160.8514 C.3     1  UNL1        0.0768
     15 N         141.7337  138.2644  160.1612 N.3     1  UNL1       -0.2720
     16 C         143.0959  138.0618  160.7555 C.3     1  UNL1        0.0768
     17 C         143.5219  138.2011  162.1870 C.3     1  UNL1        0.0434
     18 C         142.7612  141.0289  170.2622 C.3     1  UNL1        0.0102
     19 C         142.4002  139.6748  169.7271 C.3     1  UNL1        0.0853
     20 C         140.1150  139.3255  157.0024 C.3     1  UNL1        0.0666
     21 S         139.2313  140.4870  157.3482 S.3     1  UNL1       -0.0756
     22 C         139.6076  141.4075  158.4712 C.ar    1  UNL1        0.1932
     23 N         140.7068  142.4279  158.4441 N.ar    1  UNL1       -0.1221
     24 N         140.7294  143.1203  159.7746 N.ar    1  UNL1       -0.1282
     25 C         139.6442  142.5278  160.6239 C.ar    1  UNL1        0.1669
     26 N         138.9509  141.4693  159.8183 N.ar    1  UNL1       -0.2884
     27 C         137.8025  140.6214  160.2791 C.3     1  UNL1        0.1340
     28 C         139.3108  142.9243  162.0316 C.ar    1  UNL1        0.0374
     29 C         137.9322  143.4109  162.3672 C.ar    1  UNL1        0.0031
     30 C         137.5988  143.8073  163.7749 C.ar    1  UNL1        0.0016
     31 C         138.6440  143.7173  164.8471 C.ar    1  UNL1        0.0191
     32 C         140.0226  143.2307  164.5114 C.ar    1  UNL1        0.0810
     33 N         141.0678  143.1406  165.5835 N.ar    1  UNL1       -0.2497
     34 C         142.4465  142.6540  165.2479 C.ar    1  UNL1        0.0593
     35 C         143.4917  142.5639  166.3199 C.3     1  UNL1        0.0521
     36 C         142.7798  142.2575  163.8401 C.ar    1  UNL1        0.0147
     37 C         141.7346  142.3476  162.7680 C.ar    1  UNL1        0.0028
     38 C         140.3560  142.8342  163.1037 C.ar    1  UNL1        0.0206
@<TRIPOS>BOND
     1    18    19    1
     2    19     3    1
     3     3     4   ar
     4     4     5   ar
     5     5     6   ar
     6     6     7   ar
     7     7     8   ar
     8     8     9   ar
     9     9    10    1
    10     9    11   ar
    11    11    12   ar
    12     8    13    1
    13    13    14    1
    14    14    15    1
    15    15     2    1
    16     2     1    1
    17     1    20    1
    18    20    21    1
    19    21    22    1
    20    22    23   ar
    21    23    24   ar
    22    24    25   ar
    23    25    28    1
    24    28    29   ar
    25    29    30   ar
    26    30    31   ar
    27    31    32   ar
    28    32    33   ar
    29    33    34   ar
    30    34    35    1
    31    34    36   ar
    32    36    37   ar
    33    37    38   ar
    34    25    26   ar
    35    26    27    1
    36    15    16    1
    37    16    17    1
    38    12     3   ar
    39    26    22   ar
    40    11     5   ar
    41    38    28   ar
    42    17     7    1
    43    38    32   ar
