@<TRIPOS>MOLECULE
*****
 39 42 0 0 0
SMALL
GASTEIGER

@<TRIPOS>ATOM
      1 C         140.1619  143.2807  162.0787 C.ar    1  UNL1        0.1542
      2 N         139.4776  141.9722  162.3426 N.ar    1  UNL1       -0.1607
      3 N         139.8158  141.5459  163.7404 N.ar    1  UNL1       -0.2289
      4 C         140.7090  142.5909  164.3405 C.ar    1  UNL1        0.0828
      5 C         140.9230  143.6631  163.3135 C.ar    1  UNL1        0.0485
      6 C         139.3436  140.2943  164.4191 C.ar    1  UNL1        0.0933
      7 C         138.3251  140.3752  165.5173 C.ar    1  UNL1        0.0209
      8 C         137.8529  139.1236  166.1959 C.ar    1  UNL1        0.0130
      9 C         138.3993  137.7911  165.7764 C.ar    1  UNL1        0.0586
     10 CL        137.9272  136.5395  166.4551 Cl      1  UNL1       -0.0822
     11 C         139.4179  137.7102  164.6783 C.ar    1  UNL1        0.0243
     12 C         139.8900  138.9618  163.9996 C.ar    1  UNL1        0.0761
     13 CL        140.9086  138.8810  162.9014 Cl      1  UNL1       -0.0806
     14 C         141.2869  142.5679  165.7245 C.ar    1  UNL1        0.0176
     15 C         140.4116  142.8570  166.9077 C.ar    1  UNL1        0.0024
     16 C         140.9895  142.8339  168.2917 C.ar    1  UNL1        0.0114
     17 C         142.4428  142.5217  168.4925 C.ar    1  UNL1        0.0577
     18 CL        143.0207  142.4986  169.8766 Cl      1  UNL1       -0.0822
     19 C         143.3183  142.2325  167.3093 C.ar    1  UNL1        0.0114
     20 C         142.7403  142.2556  165.9253 C.ar    1  UNL1        0.0024
     21 N         140.6004  143.4685  159.5248 N.am    1  UNL1       -0.2962
     22 C         140.0965  144.0685  160.8039 C.2     1  UNL1        0.2653
     23 O         139.5274  145.4563  160.8082 O.2     1  UNL1       -0.2684
     24 H         140.9739  142.5576  159.5220 H       1  UNL1        0.1501
     25 C         139.2736  143.5385  157.8711 C.3     1  UNL1        0.0276
     26 C         140.5350  144.2563  158.2500 C.3     1  UNL1        0.1126
     27 C         141.7965  144.9741  158.6289 C.3     1  UNL1        0.0276
     28 C         140.4697  145.0440  156.9753 C.ar    1  UNL1        0.1964
     29 N         140.9496  144.5857  155.6301 N.ar    1  UNL1       -0.0587
     30 O         140.6895  145.6869  154.6452 O.2     1  UNL1       -0.3285
     31 C         140.0488  146.8257  155.3818 C.ar    1  UNL1        0.3317
     32 N         139.9130  146.4284  156.8219 N.ar    1  UNL1       -0.1862
     33 C         139.6193  148.1324  154.7834 C.3     1  UNL1        0.4721
     34 F         139.1899  149.4391  154.1850 F       1  UNL1       -0.1619
     35 F         138.8041  148.4253  156.0080 F       1  UNL1       -0.1619
     36 F         140.4346  147.8395  153.5588 F       1  UNL1       -0.1619
     37 C         141.7523  144.9004  163.4902 C.3     1  UNL1        0.1668
     38 O         141.1623  146.2474  163.1940 O.3     1  UNL1       -0.3771
     39 H         140.9703  146.3148  162.2456 H       1  UNL1        0.2109
@<TRIPOS>BOND
     1    25    26    1
     2    26    27    1
     3    26    21    1
     4    21    22   am
     5    22    23    2
     6    22     1    1
     7     1     2   ar
     8     2     3   ar
     9     3     6    1
    10     6     7   ar
    11     7     8   ar
    12     8     9   ar
    13     9    10    1
    14     9    11   ar
    15    11    12   ar
    16    12    13    1
    17     3     4   ar
    18     4    14    1
    19    14    15   ar
    20    15    16   ar
    21    16    17   ar
    22    17    18    1
    23    17    19   ar
    24    19    20   ar
    25     4     5   ar
    26     5    37    1
    27    37    38    1
    28    26    28    1
    29    28    29   ar
    30    29    30   ar
    31    30    31   ar
    32    31    33    1
    33    33    34    1
    34    33    35    1
    35    33    36    1
    36    31    32   ar
    37     5     1   ar
    38    32    28   ar
    39    12     6   ar
    40    20    14   ar
    41    21    24    1
    42    38    39    1
@<TRIPOS>MOLECULE
*****
 39 42 0 0 0
SMALL
GASTEIGER

@<TRIPOS>ATOM
      1 C         141.0688  142.9294  162.1932 C.ar    1  UNL1        0.1542
      2 N         141.6008  143.3924  163.5170 N.ar    1  UNL1       -0.1607
      3 N         141.1430  142.4224  164.5655 N.ar    1  UNL1       -0.2289
      4 C         140.3279  141.3599  163.8897 C.ar    1  UNL1        0.0828
      5 C         140.2820  141.6731  162.4236 C.ar    1  UNL1        0.0485
      6 C         141.4468  142.5011  166.0324 C.ar    1  UNL1        0.0933
      7 C         140.3747  142.9072  166.9996 C.ar    1  UNL1        0.0209
      8 C         140.6786  142.9859  168.4664 C.ar    1  UNL1        0.0130
      9 C         142.0546  142.6585  168.9659 C.ar    1  UNL1        0.0586
     10 CL        142.3584  142.7372  170.4327 Cl      1  UNL1       -0.0822
     11 C         143.1267  142.2525  167.9986 C.ar    1  UNL1        0.0243
     12 C         142.8228  142.1738  166.5319 C.ar    1  UNL1        0.0761
     13 CL        143.8949  141.7677  165.5645 Cl      1  UNL1       -0.0806
     14 C         139.6736  140.1895  164.5621 C.ar    1  UNL1        0.0176
     15 C         140.1573  138.7974  164.2828 C.ar    1  UNL1        0.0024
     16 C         139.5030  137.6270  164.9552 C.ar    1  UNL1        0.0114
     17 C         138.3649  137.8487  165.9069 C.ar    1  UNL1        0.0577
     18 CL        137.7106  136.6783  166.5793 Cl      1  UNL1       -0.0822
     19 C         137.8812  139.2409  166.1862 C.ar    1  UNL1        0.0114
     20 C         138.5356  140.4112  165.5138 C.ar    1  UNL1        0.0024
     21 N         140.1158  143.9012  159.9802 N.am    1  UNL1       -0.2962
     22 C         141.2854  143.6040  160.8711 C.2     1  UNL1        0.2653
     23 O         142.6716  143.9816  160.4399 O.2     1  UNL1       -0.2684
     24 H         139.2060  143.6534  160.2632 H       1  UNL1        0.1501
     25 C         140.2697  145.9149  159.3312 C.3     1  UNL1        0.0276
     26 C         140.3324  144.5759  158.6581 C.3     1  UNL1        0.1126
     27 C         140.3950  143.2368  157.9850 C.3     1  UNL1        0.0276
     28 C         140.5490  145.2505  157.3361 C.ar    1  UNL1        0.1964
     29 N         141.5520  144.8494  156.2954 N.ar    1  UNL1       -0.0587
     30 O         141.4235  145.7958  155.1386 O.2     1  UNL1       -0.3285
     31 C         140.3411  146.7818  155.4644 C.ar    1  UNL1        0.3317
     32 N         139.8006  146.4447  156.8226 N.ar    1  UNL1       -0.1862
     33 C         139.8801  147.9071  154.5864 C.3     1  UNL1        0.4721
     34 F         139.4190  149.0325  153.7084 F       1  UNL1       -0.1619
     35 F         140.7668  147.4098  153.4835 F       1  UNL1       -0.1619
     36 F         138.9933  148.4044  155.6894 F       1  UNL1       -0.1619
     37 C         139.5738  140.8711  161.3723 C.3     1  UNL1        0.1668
     38 O         138.4195  141.4688  160.6237 O.3     1  UNL1       -0.3771
     39 H         137.6822  141.6221  161.2351 H       1  UNL1        0.2109
@<TRIPOS>BOND
     1    25    26    1
     2    26    27    1
     3    26    21    1
     4    21    22   am
     5    22    23    2
     6    22     1    1
     7     1     2   ar
     8     2     3   ar
     9     3     6    1
    10     6     7   ar
    11     7     8   ar
    12     8     9   ar
    13     9    10    1
    14     9    11   ar
    15    11    12   ar
    16    12    13    1
    17     3     4   ar
    18     4    14    1
    19    14    15   ar
    20    15    16   ar
    21    16    17   ar
    22    17    18    1
    23    17    19   ar
    24    19    20   ar
    25     4     5   ar
    26     5    37    1
    27    37    38    1
    28    26    28    1
    29    28    29   ar
    30    29    30   ar
    31    30    31   ar
    32    31    33    1
    33    33    34    1
    34    33    35    1
    35    33    36    1
    36    31    32   ar
    37     5     1   ar
    38    32    28   ar
    39    12     6   ar
    40    20    14   ar
    41    21    24    1
    42    38    39    1
@<TRIPOS>MOLECULE
*****
 39 42 0 0 0
SMALL
GASTEIGER

@<TRIPOS>ATOM
      1 C         141.2224  142.8945  162.2538 C.ar    1  UNL1        0.1542
      2 N         140.4211  141.6460  162.4753 N.ar    1  UNL1       -0.1607
      3 N         140.4363  141.3398  163.9436 N.ar    1  UNL1       -0.2289
      4 C         141.2470  142.3991  164.6296 C.ar    1  UNL1        0.0828
      5 C         141.7329  143.3600  163.5854 C.ar    1  UNL1        0.0485
      6 C         139.7595  140.1782  164.6091 C.ar    1  UNL1        0.0933
      7 C         138.5756  140.4101  165.5005 C.ar    1  UNL1        0.0209
      8 C         137.8989  139.2486  166.1659 C.ar    1  UNL1        0.0130
      9 C         138.4061  137.8551  165.9399 C.ar    1  UNL1        0.0586
     10 CL        137.7293  136.6936  166.6054 Cl      1  UNL1       -0.0822
     11 C         139.5899  137.6232  165.0485 C.ar    1  UNL1        0.0243
     12 C         140.2666  138.7848  164.3831 C.ar    1  UNL1        0.0761
     13 CL        141.4505  138.5529  163.4916 Cl      1  UNL1       -0.0806
     14 C         141.5234  142.4827  166.1016 C.ar    1  UNL1        0.0176
     15 C         142.8888  142.1540  166.6282 C.ar    1  UNL1        0.0024
     16 C         143.1652  142.2377  168.1002 C.ar    1  UNL1        0.0114
     17 C         142.0760  142.6501  169.0455 C.ar    1  UNL1        0.0577
     18 CL        142.3524  142.7338  170.5175 Cl      1  UNL1       -0.0822
     19 C         140.7104  142.9788  168.5189 C.ar    1  UNL1        0.0114
     20 C         140.4342  142.8951  167.0469 C.ar    1  UNL1        0.0024
     21 N         140.3444  143.7304  159.9560 N.am    1  UNL1       -0.2962
     22 C         141.4699  143.5607  160.9329 C.2     1  UNL1        0.2653
     23 O         142.8429  144.0571  160.5888 O.2     1  UNL1       -0.2684
     24 H         139.4432  143.4046  160.1818 H       1  UNL1        0.1501
     25 C         140.2986  145.7315  159.2532 C.3     1  UNL1        0.0276
     26 C         140.5918  144.3966  158.6350 C.3     1  UNL1        0.1126
     27 C         140.8851  143.0618  158.0167 C.3     1  UNL1        0.0276
     28 C         140.8393  145.0627  157.3141 C.ar    1  UNL1        0.1964
     29 N         140.1992  146.3310  156.8326 N.ar    1  UNL1       -0.0587
     30 O         140.7346  146.6298  155.4635 O.2     1  UNL1       -0.3285
     31 C         141.7056  145.5461  155.0989 C.ar    1  UNL1        0.3317
     32 N         141.7703  144.5777  156.2427 N.ar    1  UNL1       -0.1862
     33 C         142.4765  145.4481  153.8159 C.3     1  UNL1        0.4721
     34 F         143.2474  145.3502  152.5330 F       1  UNL1       -0.1619
     35 F         143.5969  144.7637  154.5414 F       1  UNL1       -0.1619
     36 F         141.3561  146.1326  153.0905 F       1  UNL1       -0.1619
     37 C         142.5805  144.5732  163.8296 C.3     1  UNL1        0.1668
     38 O         143.9297  144.6878  163.1843 O.3     1  UNL1       -0.3771
     39 H         144.5181  144.0043  163.5415 H       1  UNL1        0.2109
@<TRIPOS>BOND
     1    25    26    1
     2    26    27    1
     3    26    21    1
     4    21    22   am
     5    22    23    2
     6    22     1    1
     7     1     2   ar
     8     2     3   ar
     9     3     6    1
    10     6     7   ar
    11     7     8   ar
    12     8     9   ar
    13     9    10    1
    14     9    11   ar
    15    11    12   ar
    16    12    13    1
    17     3     4   ar
    18     4    14    1
    19    14    15   ar
    20    15    16   ar
    21    16    17   ar
    22    17    18    1
    23    17    19   ar
    24    19    20   ar
    25     4     5   ar
    26     5    37    1
    27    37    38    1
    28    26    28    1
    29    28    29   ar
    30    29    30   ar
    31    30    31   ar
    32    31    33    1
    33    33    34    1
    34    33    35    1
    35    33    36    1
    36    31    32   ar
    37     5     1   ar
    38    32    28   ar
    39    12     6   ar
    40    20    14   ar
    41    21    24    1
    42    38    39    1
@<TRIPOS>MOLECULE
*****
 39 42 0 0 0
SMALL
GASTEIGER

@<TRIPOS>ATOM
      1 C         142.2008  143.4870  161.8537 C.ar    1  UNL1        0.1542
      2 N         143.1446  142.5887  161.1105 N.ar    1  UNL1       -0.1607
      3 N         142.9383  142.8130  159.6418 N.ar    1  UNL1       -0.2289
      4 C         141.8669  143.8498  159.4772 C.ar    1  UNL1        0.0828
      5 C         141.4111  144.2664  160.8442 C.ar    1  UNL1        0.0485
      6 C         143.6741  142.1217  158.5323 C.ar    1  UNL1        0.0933
      7 C         145.0109  142.6345  158.0854 C.ar    1  UNL1        0.0209
      8 C         145.7467  141.9433  156.9760 C.ar    1  UNL1        0.0130
      9 C         145.1456  140.7391  156.3136 C.ar    1  UNL1        0.0586
     10 CL        145.8814  140.0479  155.2041 Cl      1  UNL1       -0.0822
     11 C         143.8088  140.2263  156.7606 C.ar    1  UNL1        0.0243
     12 C         143.0730  140.9176  157.8699 C.ar    1  UNL1        0.0761
     13 CL        141.7361  140.4047  158.3170 Cl      1  UNL1       -0.0806
     14 C         141.3432  144.3775  158.1744 C.ar    1  UNL1        0.0176
     15 C         141.9282  145.6247  157.5809 C.ar    1  UNL1        0.0024
     16 C         141.4045  146.1523  156.2780 C.ar    1  UNL1        0.0114
     17 C         140.2959  145.4328  155.5687 C.ar    1  UNL1        0.0577
     18 CL        139.7722  145.9604  154.2659 Cl      1  UNL1       -0.0822
     19 C         139.7108  144.1855  156.1622 C.ar    1  UNL1        0.0114
     20 C         140.2346  143.6579  157.4651 C.ar    1  UNL1        0.0024
     21 N         141.9305  142.3443  164.1712 N.am    1  UNL1       -0.2962
     22 C         142.0697  143.5881  163.3445 C.2     1  UNL1        0.2653
     23 O         142.0778  144.9331  164.0086 O.2     1  UNL1       -0.2684
     24 H         141.9251  141.4616  163.7354 H       1  UNL1        0.1501
     25 C         143.2908  142.3617  165.7989 C.3     1  UNL1        0.0276
     26 C         141.7993  142.4454  165.6621 C.3     1  UNL1        0.1126
     27 C         140.3079  142.5291  165.5252 C.3     1  UNL1        0.0276
     28 C         141.6682  142.5465  167.1528 C.ar    1  UNL1        0.1964
     29 N         142.7412  142.2397  168.1551 N.ar    1  UNL1       -0.0587
     30 O         142.1773  142.4758  169.5249 O.2     1  UNL1       -0.3285
     31 C         140.7557  142.9285  169.3692 C.ar    1  UNL1        0.3317
     32 N         140.4412  142.9722  167.9032 N.ar    1  UNL1       -0.1862
     33 C         139.8141  143.2765  170.4838 C.3     1  UNL1        0.4721
     34 F         138.8725  143.6244  171.5983 F       1  UNL1       -0.1619
     35 F         139.4348  141.8311  170.6145 F       1  UNL1       -0.1619
     36 F         140.1934  144.7219  170.3530 F       1  UNL1       -0.1619
     37 C         140.3517  145.2838  161.1484 C.3     1  UNL1        0.1668
     38 O         140.6403  146.4050  162.1022 O.3     1  UNL1       -0.3771
     39 H         140.7796  146.0447  162.9920 H       1  UNL1        0.2109
@<TRIPOS>BOND
     1    25    26    1
     2    26    27    1
     3    26    21    1
     4    21    22   am
     5    22    23    2
     6    22     1    1
     7     1     2   ar
     8     2     3   ar
     9     3     6    1
    10     6     7   ar
    11     7     8   ar
    12     8     9   ar
    13     9    10    1
    14     9    11   ar
    15    11    12   ar
    16    12    13    1
    17     3     4   ar
    18     4    14    1
    19    14    15   ar
    20    15    16   ar
    21    16    17   ar
    22    17    18    1
    23    17    19   ar
    24    19    20   ar
    25     4     5   ar
    26     5    37    1
    27    37    38    1
    28    26    28    1
    29    28    29   ar
    30    29    30   ar
    31    30    31   ar
    32    31    33    1
    33    33    34    1
    34    33    35    1
    35    33    36    1
    36    31    32   ar
    37     5     1   ar
    38    32    28   ar
    39    12     6   ar
    40    20    14   ar
    41    21    24    1
    42    38    39    1
@<TRIPOS>MOLECULE
*****
 39 42 0 0 0
SMALL
GASTEIGER

@<TRIPOS>ATOM
      1 C         142.1427  141.9424  162.0622 C.ar    1  UNL1        0.1542
      2 N         141.1982  140.8121  162.3458 N.ar    1  UNL1       -0.1607
      3 N         140.9610  140.7667  163.8262 N.ar    1  UNL1       -0.2289
      4 C         141.7589  141.8688  164.4576 C.ar    1  UNL1        0.0828
      5 C         142.4893  142.5955  163.3674 C.ar    1  UNL1        0.0485
      6 C         140.0804  139.7904  164.5485 C.ar    1  UNL1        0.0933
      7 C         138.8687  140.2771  165.2867 C.ar    1  UNL1        0.0209
      8 C         137.9883  139.3008  166.0089 C.ar    1  UNL1        0.0130
      9 C         138.3195  137.8379  165.9930 C.ar    1  UNL1        0.0586
     10 CL        137.4389  136.8617  166.7153 Cl      1  UNL1       -0.0822
     11 C         139.5312  137.3513  165.2548 C.ar    1  UNL1        0.0243
     12 C         140.4116  138.3275  164.5326 C.ar    1  UNL1        0.0761
     13 CL        141.6234  137.8409  163.7943 Cl      1  UNL1       -0.0806
     14 C         141.8164  142.1882  165.9220 C.ar    1  UNL1        0.0176
     15 C         143.0824  141.9542  166.6916 C.ar    1  UNL1        0.0024
     16 C         143.1399  142.2736  168.1561 C.ar    1  UNL1        0.0114
     17 C         141.9313  142.8271  168.8510 C.ar    1  UNL1        0.0577
     18 CL        141.9887  143.1465  170.3155 Cl      1  UNL1       -0.0822
     19 C         140.6651  143.0612  168.0814 C.ar    1  UNL1        0.0114
     20 C         140.6078  142.7417  166.6170 C.ar    1  UNL1        0.0024
     21 N         143.6228  141.4695  159.9800 N.am    1  UNL1       -0.2962
     22 C         142.6514  142.3483  160.7107 C.2     1  UNL1        0.2653
     23 O         142.1887  143.6331  160.0900 O.2     1  UNL1       -0.2684
     24 H         143.9265  140.6263  160.3873 H       1  UNL1        0.1501
     25 C         143.0728  141.0353  157.9777 C.3     1  UNL1        0.0276
     26 C         144.1315  141.8754  158.6285 C.3     1  UNL1        0.1126
     27 C         145.1901  142.7156  159.2793 C.3     1  UNL1        0.0276
     28 C         144.6401  142.2813  157.2771 C.ar    1  UNL1        0.1964
     29 N         143.8032  142.7538  156.1254 N.ar    1  UNL1       -0.0587
     30 O         144.7209  143.0505  154.9765 O.2     1  UNL1       -0.3285
     31 C         146.1249  142.7615  155.4181 C.ar    1  UNL1        0.3317
     32 N         146.0750  142.2861  156.8400 N.ar    1  UNL1       -0.1862
     33 C         147.3617  142.9200  154.5844 C.3     1  UNL1        0.4721
     34 F         148.5985  143.0785  153.7507 F       1  UNL1       -0.1619
     35 F         146.5423  143.5263  153.4840 F       1  UNL1       -0.1619
     36 F         148.1812  142.3137  155.6848 F       1  UNL1       -0.1619
     37 C         143.4053  143.7691  163.5503 C.3     1  UNL1        0.1668
     38 O         143.3290  144.9340  162.6083 O.3     1  UNL1       -0.3771
     39 H         143.6024  144.6513  161.7216 H       1  UNL1        0.2109
@<TRIPOS>BOND
     1    25    26    1
     2    26    27    1
     3    26    21    1
     4    21    22   am
     5    22    23    2
     6    22     1    1
     7     1     2   ar
     8     2     3   ar
     9     3     6    1
    10     6     7   ar
    11     7     8   ar
    12     8     9   ar
    13     9    10    1
    14     9    11   ar
    15    11    12   ar
    16    12    13    1
    17     3     4   ar
    18     4    14    1
    19    14    15   ar
    20    15    16   ar
    21    16    17   ar
    22    17    18    1
    23    17    19   ar
    24    19    20   ar
    25     4     5   ar
    26     5    37    1
    27    37    38    1
    28    26    28    1
    29    28    29   ar
    30    29    30   ar
    31    30    31   ar
    32    31    33    1
    33    33    34    1
    34    33    35    1
    35    33    36    1
    36    31    32   ar
    37     5     1   ar
    38    32    28   ar
    39    12     6   ar
    40    20    14   ar
    41    21    24    1
    42    38    39    1
@<TRIPOS>MOLECULE
*****
 39 42 0 0 0
SMALL
GASTEIGER

@<TRIPOS>ATOM
      1 C         139.9742  139.8029  161.3906 C.ar    1  UNL1        0.1542
      2 N         140.6762  138.8118  160.5103 N.ar    1  UNL1       -0.1607
      3 N         140.4016  139.1834  159.0833 N.ar    1  UNL1       -0.2289
      4 C         139.5299  140.4041  159.0816 C.ar    1  UNL1        0.0828
      5 C         139.2658  140.7870  160.5076 C.ar    1  UNL1        0.0485
      6 C         140.9095  138.4610  157.8706 C.ar    1  UNL1        0.0933
      7 C         139.9858  137.5842  157.0783 C.ar    1  UNL1        0.0209
      8 C         140.4938  136.8620  155.8657 C.ar    1  UNL1        0.0130
      9 C         141.9254  137.0165  155.4456 C.ar    1  UNL1        0.0586
     10 CL        142.4333  136.2941  154.2330 Cl      1  UNL1       -0.0822
     11 C         142.8491  137.8933  156.2380 C.ar    1  UNL1        0.0243
     12 C         142.3412  138.6156  157.4505 C.ar    1  UNL1        0.0761
     13 CL        143.2649  139.4924  158.2430 Cl      1  UNL1       -0.0806
     14 C         139.0131  141.1168  157.8671 C.ar    1  UNL1        0.0176
     15 C         139.9130  142.0387  157.0988 C.ar    1  UNL1        0.0024
     16 C         139.3962  142.7514  155.8843 C.ar    1  UNL1        0.0114
     17 C         137.9794  142.5423  155.4382 C.ar    1  UNL1        0.0577
     18 CL        137.4626  143.2550  154.2237 Cl      1  UNL1       -0.0822
     19 C         137.0794  141.6204  156.2065 C.ar    1  UNL1        0.0114
     20 C         137.5963  140.9077  157.4210 C.ar    1  UNL1        0.0024
     21 N         138.7033  139.5856  163.6462 N.am    1  UNL1       -0.2962
     22 C         139.9797  139.8088  162.8906 C.2     1  UNL1        0.2653
     23 O         141.2616  140.0380  163.6351 O.2     1  UNL1       -0.2684
     24 H         137.8619  139.4352  163.1576 H       1  UNL1        0.1501
     25 C         138.8808  138.1015  165.1515 C.3     1  UNL1        0.0276
     26 C         138.7088  139.5916  165.1462 C.3     1  UNL1        0.1126
     27 C         138.5369  141.0817  165.1409 C.3     1  UNL1        0.0276
     28 C         138.7143  139.5975  166.6461 C.ar    1  UNL1        0.1964
     29 N         137.7597  138.8560  167.5342 N.ar    1  UNL1       -0.0587
     30 O         138.1308  139.1462  168.9584 O.2     1  UNL1       -0.3285
     31 C         139.3148  140.0671  168.9504 C.ar    1  UNL1        0.3317
     32 N         139.6754  140.3460  167.5213 N.ar    1  UNL1       -0.1862
     33 C         140.0152  140.6132  170.1592 C.3     1  UNL1        0.4721
     34 F         140.7156  141.1591  171.3680 F       1  UNL1       -0.1619
     35 F         139.2005  141.8690  170.0639 F       1  UNL1       -0.1619
     36 F         140.8299  139.3572  170.2545 F       1  UNL1       -0.1619
     37 C         138.4385  141.9498  160.9696 C.3     1  UNL1        0.1668
     38 O         137.3114  141.7319  161.9351 O.3     1  UNL1       -0.3771
     39 H         136.6204  141.1995  161.5107 H       1  UNL1        0.2109
@<TRIPOS>BOND
     1    25    26    1
     2    26    27    1
     3    26    21    1
     4    21    22   am
     5    22    23    2
     6    22     1    1
     7     1     2   ar
     8     2     3   ar
     9     3     6    1
    10     6     7   ar
    11     7     8   ar
    12     8     9   ar
    13     9    10    1
    14     9    11   ar
    15    11    12   ar
    16    12    13    1
    17     3     4   ar
    18     4    14    1
    19    14    15   ar
    20    15    16   ar
    21    16    17   ar
    22    17    18    1
    23    17    19   ar
    24    19    20   ar
    25     4     5   ar
    26     5    37    1
    27    37    38    1
    28    26    28    1
    29    28    29   ar
    30    29    30   ar
    31    30    31   ar
    32    31    33    1
    33    33    34    1
    34    33    35    1
    35    33    36    1
    36    31    32   ar
    37     5     1   ar
    38    32    28   ar
    39    12     6   ar
    40    20    14   ar
    41    21    24    1
    42    38    39    1
@<TRIPOS>MOLECULE
*****
 39 42 0 0 0
SMALL
GASTEIGER

@<TRIPOS>ATOM
      1 C         140.5394  143.3028  160.8837 C.ar    1  UNL1        0.1542
      2 N         141.8860  142.7523  161.2490 N.ar    1  UNL1       -0.1607
      3 N         141.6942  141.7486  162.3470 N.ar    1  UNL1       -0.2289
      4 C         140.2289  141.6787  162.6604 C.ar    1  UNL1        0.0828
      5 C         139.5152  142.6393  161.7560 C.ar    1  UNL1        0.0485
      6 C         142.7774  140.9541  163.0145 C.ar    1  UNL1        0.0933
      7 C         143.4854  141.5111  164.2139 C.ar    1  UNL1        0.0209
      8 C         144.5686  140.7166  164.8814 C.ar    1  UNL1        0.0130
      9 C         144.9438  139.3652  164.3494 C.ar    1  UNL1        0.0586
     10 CL        146.0270  138.5708  165.0170 Cl      1  UNL1       -0.0822
     11 C         144.2358  138.8083  163.1501 C.ar    1  UNL1        0.0243
     12 C         143.1526  139.6027  162.4826 C.ar    1  UNL1        0.0761
     13 CL        142.4446  139.0458  161.2832 Cl      1  UNL1       -0.0806
     14 C         139.5897  140.8021  163.6962 C.ar    1  UNL1        0.0176
     15 C         139.3855  141.3155  165.0907 C.ar    1  UNL1        0.0024
     16 C         138.7462  140.4389  166.1266 C.ar    1  UNL1        0.0114
     17 C         138.3111  139.0490  165.7679 C.ar    1  UNL1        0.0577
     18 CL        137.6718  138.1724  166.8037 Cl      1  UNL1       -0.0822
     19 C         138.5152  138.5355  164.3733 C.ar    1  UNL1        0.0114
     20 C         139.1545  139.4122  163.3375 C.ar    1  UNL1        0.0024
     21 N         140.7003  144.0976  158.4154 N.am    1  UNL1       -0.2962
     22 C         140.2650  144.3355  159.8310 C.2     1  UNL1        0.2653
     23 O         139.5553  145.6062  160.1938 O.2     1  UNL1       -0.2684
     24 H         141.1661  143.2636  158.1773 H       1  UNL1        0.1501
     25 C         141.6493  145.8877  157.7868 C.3     1  UNL1        0.0276
     26 C         140.4260  145.1303  157.3627 C.3     1  UNL1        0.1126
     27 C         139.2026  144.3730  156.9386 C.3     1  UNL1        0.0276
     28 C         140.1516  146.1630  156.3101 C.ar    1  UNL1        0.1964
     29 N         140.4380  146.0253  154.8441 N.ar    1  UNL1       -0.0587
     30 O         140.0061  147.2920  154.1664 O.2     1  UNL1       -0.3285
     31 C         139.4527  148.2125  155.2136 C.ar    1  UNL1        0.3317
     32 N         139.5427  147.5146  156.5384 N.ar    1  UNL1       -0.1862
     33 C         138.9055  149.5890  154.9775 C.3     1  UNL1        0.4721
     34 F         138.3584  150.9654  154.7413 F       1  UNL1       -0.1619
     35 F         138.3351  149.6002  156.3647 F       1  UNL1       -0.1619
     36 F         139.4760  149.5777  153.5902 F       1  UNL1       -0.1619
     37 C         138.0369  142.8919  161.7287 C.3     1  UNL1        0.1668
     38 O         137.4931  144.2124  162.1878 O.3     1  UNL1       -0.3771
     39 H         137.6582  144.3173  163.1379 H       1  UNL1        0.2109
@<TRIPOS>BOND
     1    25    26    1
     2    26    27    1
     3    26    21    1
     4    21    22   am
     5    22    23    2
     6    22     1    1
     7     1     2   ar
     8     2     3   ar
     9     3     6    1
    10     6     7   ar
    11     7     8   ar
    12     8     9   ar
    13     9    10    1
    14     9    11   ar
    15    11    12   ar
    16    12    13    1
    17     3     4   ar
    18     4    14    1
    19    14    15   ar
    20    15    16   ar
    21    16    17   ar
    22    17    18    1
    23    17    19   ar
    24    19    20   ar
    25     4     5   ar
    26     5    37    1
    27    37    38    1
    28    26    28    1
    29    28    29   ar
    30    29    30   ar
    31    30    31   ar
    32    31    33    1
    33    33    34    1
    34    33    35    1
    35    33    36    1
    36    31    32   ar
    37     5     1   ar
    38    32    28   ar
    39    12     6   ar
    40    20    14   ar
    41    21    24    1
    42    38    39    1
@<TRIPOS>MOLECULE
*****
 39 42 0 0 0
SMALL
GASTEIGER

@<TRIPOS>ATOM
      1 C         141.4187  142.2261  161.7097 C.ar    1  UNL1        0.1542
      2 N         142.5423  141.5923  160.9444 N.ar    1  UNL1       -0.1607
      3 N         142.5556  142.1834  159.5658 N.ar    1  UNL1       -0.2289
      4 C         141.4402  143.1826  159.4792 C.ar    1  UNL1        0.0828
      5 C         140.7375  143.2090  160.8041 C.ar    1  UNL1        0.0485
      6 C         143.5157  141.8362  158.4668 C.ar    1  UNL1        0.0933
      7 C         144.8001  142.5978  158.3247 C.ar    1  UNL1        0.0209
      8 C         145.7602  142.2506  157.2258 C.ar    1  UNL1        0.0130
      9 C         145.4358  141.1419  156.2689 C.ar    1  UNL1        0.0586
     10 CL        146.3959  140.7948  155.1699 Cl      1  UNL1       -0.0822
     11 C         144.1513  140.3804  156.4110 C.ar    1  UNL1        0.0243
     12 C         143.1913  140.7275  157.5100 C.ar    1  UNL1        0.0761
     13 CL        141.9068  139.9660  157.6521 Cl      1  UNL1       -0.0806
     14 C         141.0890  144.0101  158.2784 C.ar    1  UNL1        0.0176
     15 C         139.8489  143.7029  157.4924 C.ar    1  UNL1        0.0024
     16 C         139.4978  144.5304  156.2916 C.ar    1  UNL1        0.0114
     17 C         140.3868  145.6651  155.8767 C.ar    1  UNL1        0.0577
     18 CL        140.0357  146.4926  154.6759 Cl      1  UNL1       -0.0822
     19 C         141.6270  145.9723  156.6626 C.ar    1  UNL1        0.0114
     20 C         141.9781  145.1447  157.8634 C.ar    1  UNL1        0.0024
     21 N         140.3037  140.6667  163.4633 N.am    1  UNL1       -0.2962
     22 C         141.0423  141.9293  163.1311 C.2     1  UNL1        0.2653
     23 O         141.4046  142.8949  164.2202 O.2     1  UNL1       -0.2684
     24 H         140.0660  140.0329  162.7484 H       1  UNL1        0.1501
     25 C         138.5928  141.0191  164.6669 C.3     1  UNL1        0.0276
     26 C         139.9273  140.3698  164.8846 C.3     1  UNL1        0.1126
     27 C         141.2619  139.7205  165.1024 C.3     1  UNL1        0.0276
     28 C         139.5510  140.0730  166.3059 C.ar    1  UNL1        0.1964
     29 N         138.3882  139.2380  166.7541 N.ar    1  UNL1       -0.0587
     30 O         138.3899  139.2079  168.2538 O.2     1  UNL1       -0.3285
     31 C         139.5536  140.0243  168.7325 C.ar    1  UNL1        0.3317
     32 N         140.2712  140.5589  167.5286 N.ar    1  UNL1       -0.1862
     33 C         139.9332  140.2640  170.1638 C.3     1  UNL1        0.4721
     34 F         140.3128  140.5036  171.5950 F       1  UNL1       -0.1619
     35 F         138.8226  141.2643  170.2908 F       1  UNL1       -0.1619
     36 F         141.0438  139.2637  170.0367 F       1  UNL1       -0.1619
     37 C         139.5604  144.0676  161.1609 C.3     1  UNL1        0.1668
     38 O         138.1992  143.4533  161.3012 O.3     1  UNL1       -0.3771
     39 H         137.9033  143.1225  160.4387 H       1  UNL1        0.2109
@<TRIPOS>BOND
     1    25    26    1
     2    26    27    1
     3    26    21    1
     4    21    22   am
     5    22    23    2
     6    22     1    1
     7     1     2   ar
     8     2     3   ar
     9     3     6    1
    10     6     7   ar
    11     7     8   ar
    12     8     9   ar
    13     9    10    1
    14     9    11   ar
    15    11    12   ar
    16    12    13    1
    17     3     4   ar
    18     4    14    1
    19    14    15   ar
    20    15    16   ar
    21    16    17   ar
    22    17    18    1
    23    17    19   ar
    24    19    20   ar
    25     4     5   ar
    26     5    37    1
    27    37    38    1
    28    26    28    1
    29    28    29   ar
    30    29    30   ar
    31    30    31   ar
    32    31    33    1
    33    33    34    1
    34    33    35    1
    35    33    36    1
    36    31    32   ar
    37     5     1   ar
    38    32    28   ar
    39    12     6   ar
    40    20    14   ar
    41    21    24    1
    42    38    39    1
@<TRIPOS>MOLECULE
*****
 39 42 0 0 0
SMALL
GASTEIGER

@<TRIPOS>ATOM
      1 C         143.3092  139.8953  161.6334 C.ar    1  UNL1        0.1542
      2 N         142.6057  138.8279  160.8486 N.ar    1  UNL1       -0.1607
      3 N         142.6849  139.1925  159.3958 N.ar    1  UNL1       -0.2289
      4 C         143.4373  140.4852  159.2826 C.ar    1  UNL1        0.0828
      5 C         143.8231  140.9196  160.6655 C.ar    1  UNL1        0.0485
      6 C         142.1122  138.4030  158.2561 C.ar    1  UNL1        0.0933
      7 C         142.8372  137.1950  157.7415 C.ar    1  UNL1        0.0209
      8 C         142.2645  136.4055  156.6019 C.ar    1  UNL1        0.0130
      9 C         140.9668  136.8242  155.9769 C.ar    1  UNL1        0.0586
     10 CL        140.3941  136.0347  154.8372 Cl      1  UNL1       -0.0822
     11 C         140.2418  138.0323  156.4914 C.ar    1  UNL1        0.0243
     12 C         140.8145  138.8217  157.6311 C.ar    1  UNL1        0.0761
     13 CL        140.0894  140.0298  158.1457 Cl      1  UNL1       -0.0806
     14 C         143.7491  141.2154  158.0100 C.ar    1  UNL1        0.0176
     15 C         142.8821  142.3570  157.5685 C.ar    1  UNL1        0.0024
     16 C         143.1940  143.0872  156.2959 C.ar    1  UNL1        0.0114
     17 C         144.3729  142.6758  155.4647 C.ar    1  UNL1        0.0577
     18 CL        144.6847  143.4060  154.1921 Cl      1  UNL1       -0.0822
     19 C         145.2400  141.5341  155.9062 C.ar    1  UNL1        0.0114
     20 C         144.9280  140.8040  157.1788 C.ar    1  UNL1        0.0024
     21 N         142.2595  139.9611  164.0091 N.am    1  UNL1       -0.2962
     22 C         143.4704  139.9319  163.1243 C.2     1  UNL1        0.2653
     23 O         144.8424  139.9394  163.7303 O.2     1  UNL1       -0.2684
     24 H         141.3589  139.9562  163.6113 H       1  UNL1        0.1501
     25 C         142.4606  138.4986  165.5325 C.3     1  UNL1        0.0276
     26 C         142.4207  139.9978  165.5000 C.3     1  UNL1        0.1126
     27 C         142.3808  141.4969  165.4674 C.3     1  UNL1        0.0276
     28 C         142.5819  140.0344  166.9908 C.ar    1  UNL1        0.1964
     29 N         143.0916  138.9157  167.8502 N.ar    1  UNL1       -0.0587
     30 O         143.0865  139.3860  169.2746 O.2     1  UNL1       -0.3285
     31 C         142.5736  140.7955  169.2955 C.ar    1  UNL1        0.3317
     32 N         142.2618  141.1961  167.8839 N.ar    1  UNL1       -0.1862
     33 C         142.4025  141.6536  170.5138 C.3     1  UNL1        0.4721
     34 F         142.2315  142.5117  171.7321 F       1  UNL1       -0.1619
     35 F         142.4089  140.4276  171.3781 F       1  UNL1       -0.1619
     36 F         142.3962  142.8795  169.6494 F       1  UNL1       -0.1619
     37 C         144.5885  142.1603  161.0186 C.3     1  UNL1        0.1668
     38 O         145.7469  142.0822  161.9684 O.3     1  UNL1       -0.3771
     39 H         145.4264  141.8329  162.8494 H       1  UNL1        0.2109
@<TRIPOS>BOND
     1    25    26    1
     2    26    27    1
     3    26    21    1
     4    21    22   am
     5    22    23    2
     6    22     1    1
     7     1     2   ar
     8     2     3   ar
     9     3     6    1
    10     6     7   ar
    11     7     8   ar
    12     8     9   ar
    13     9    10    1
    14     9    11   ar
    15    11    12   ar
    16    12    13    1
    17     3     4   ar
    18     4    14    1
    19    14    15   ar
    20    15    16   ar
    21    16    17   ar
    22    17    18    1
    23    17    19   ar
    24    19    20   ar
    25     4     5   ar
    26     5    37    1
    27    37    38    1
    28    26    28    1
    29    28    29   ar
    30    29    30   ar
    31    30    31   ar
    32    31    33    1
    33    33    34    1
    34    33    35    1
    35    33    36    1
    36    31    32   ar
    37     5     1   ar
    38    32    28   ar
    39    12     6   ar
    40    20    14   ar
    41    21    24    1
    42    38    39    1
