@<TRIPOS>MOLECULE
*****
 19 20 0 0 0
SMALL
GASTEIGER

@<TRIPOS>ATOM
      1 C         139.0393  139.7784  166.5601 C.2     1  UNL1        0.1535
      2 N         138.9407  139.4443  168.0191 N.2     1  UNL1       -0.2470
      3 C         140.0618  140.1416  168.7311 C.3     1  UNL1        0.1723
      4 C         140.8533  140.9066  167.7122 C.3     1  UNL1        0.1938
      5 O         142.0472  141.7087  168.1377 O.3     1  UNL1       -0.3399
      6 C         142.4497  141.7458  169.5823 C.3     1  UNL1        0.1803
      7 C         141.6581  140.9808  170.6012 C.3     1  UNL1        0.2189
      8 F         142.0605  141.0179  172.0458 F       1  UNL1       -0.2319
      9 C         140.4642  140.1787  170.1756 C.3     1  UNL1        0.1711
     10 O         139.6727  139.4136  171.1946 O.3     1  UNL1       -0.3796
     11 S         140.2214  140.6821  166.3704 S.3     1  UNL1       -0.0497
     12 H         140.0640  139.5442  172.0725 H       1  UNL1        0.2105
     13 C         143.6436  142.5480  170.0079 C.3     1  UNL1        0.1696
     14 O         143.4834  143.6635  170.9977 O.3     1  UNL1       -0.3794
     15 H         142.9453  144.3689  170.6056 H       1  UNL1        0.2105
     16 N         138.1176  139.2939  165.4804 N.pl3   1  UNL1       -0.3135
     17 H         137.4438  138.6048  165.6810 H       1  UNL1        0.1487
     18 C         138.4175  138.9427  162.9237 C.3     1  UNL1        0.0230
     19 C         138.2227  139.8592  164.0950 C.3     1  UNL1        0.0887
@<TRIPOS>BOND
     1    18    19    1
     2    19    16    1
     3    16     1    1
     4     1     2    2
     5     3     2    1
     6     3     4    1
     7     4     5    1
     8     5     6    1
     9     6    13    1
    10    13    14    1
    11     6     7    1
    12     7     8    1
    13     7     9    1
    14     9    10    1
    15     4    11    1
    16    11     1    1
    17     9     3    1
    18    16    17    1
    19    14    15    1
    20    10    12    1
@<TRIPOS>MOLECULE
*****
 19 20 0 0 0
SMALL
GASTEIGER

@<TRIPOS>ATOM
      1 C         138.4632  140.8941  165.1860 C.2     1  UNL1        0.1535
      2 N         137.8683  141.9388  164.2890 N.2     1  UNL1       -0.2470
      3 C         138.9238  142.9681  164.0125 C.3     1  UNL1        0.1723
      4 C         140.1712  142.5595  164.7386 C.3     1  UNL1        0.1938
      5 O         141.4050  143.4073  164.6456 O.3     1  UNL1       -0.3399
      6 C         141.3916  144.6639  163.8264 C.3     1  UNL1        0.1803
      7 C         140.1443  145.0725  163.1003 C.3     1  UNL1        0.2189
      8 F         140.1308  146.3290  162.2812 F       1  UNL1       -0.2319
      9 C         138.9104  144.2246  163.1934 C.3     1  UNL1        0.1711
     10 O         137.6630  144.6332  162.4673 O.3     1  UNL1       -0.3796
     11 S         139.8865  141.2777  165.4639 S.3     1  UNL1       -0.0497
     12 H         137.8238  145.4620  161.9897 H       1  UNL1        0.2105
     13 C         142.6254  145.5117  163.7333 C.3     1  UNL1        0.1696
     14 O         143.5773  145.3277  162.5888 O.3     1  UNL1       -0.3794
     15 H         143.9871  144.4505  162.6469 H       1  UNL1        0.2105
     16 N         137.7586  139.6791  165.7127 N.pl3   1  UNL1       -0.3135
     17 H         136.7838  139.6959  165.8491 H       1  UNL1        0.1487
     18 C         139.0546  137.5709  164.9217 C.3     1  UNL1        0.0230
     19 C         138.5393  138.4386  166.0314 C.3     1  UNL1        0.0887
@<TRIPOS>BOND
     1    18    19    1
     2    19    16    1
     3    16     1    1
     4     1     2    2
     5     3     2    1
     6     3     4    1
     7     4     5    1
     8     5     6    1
     9     6    13    1
    10    13    14    1
    11     6     7    1
    12     7     8    1
    13     7     9    1
    14     9    10    1
    15     4    11    1
    16    11     1    1
    17     9     3    1
    18    16    17    1
    19    14    15    1
    20    10    12    1
@<TRIPOS>MOLECULE
*****
 19 20 0 0 0
SMALL
GASTEIGER

@<TRIPOS>ATOM
      1 C         142.4845  143.9796  162.0480 C.2     1  UNL1        0.1535
      2 N         143.9103  143.5522  162.2338 N.2     1  UNL1       -0.2470
      3 C         143.9114  142.2604  162.9962 C.3     1  UNL1        0.1723
      4 C         142.4863  141.8894  163.2816 C.3     1  UNL1        0.1938
      5 O         142.1757  140.6320  164.0382 O.3     1  UNL1       -0.3399
      6 C         143.2902  139.7456  164.5095 C.3     1  UNL1        0.1803
      7 C         144.7153  140.1166  164.2241 C.3     1  UNL1        0.2189
      8 F         145.8299  139.2302  164.6954 F       1  UNL1       -0.2319
      9 C         145.0259  141.3740  163.4675 C.3     1  UNL1        0.1711
     10 O         146.4510  141.7450  163.1821 O.3     1  UNL1       -0.3796
     11 S         141.6044  142.9519  162.6955 S.3     1  UNL1       -0.0497
     12 H         147.0412  141.0703  163.5528 H       1  UNL1        0.2105
     13 C         142.9796  138.4882  165.2661 C.3     1  UNL1        0.1696
     14 O         143.5659  138.2690  166.6292 O.3     1  UNL1       -0.3794
     15 H         144.5292  138.1810  166.5565 H       1  UNL1        0.2105
     16 N         142.0204  145.2173  161.3390 N.pl3   1  UNL1       -0.3135
     17 H         142.6644  145.9279  161.1165 H       1  UNL1        0.1487
     18 C         139.6967  146.3043  161.7504 C.3     1  UNL1        0.0230
     19 C         140.5750  145.3724  160.9692 C.3     1  UNL1        0.0887
@<TRIPOS>BOND
     1    18    19    1
     2    19    16    1
     3    16     1    1
     4     1     2    2
     5     3     2    1
     6     3     4    1
     7     4     5    1
     8     5     6    1
     9     6    13    1
    10    13    14    1
    11     6     7    1
    12     7     8    1
    13     7     9    1
    14     9    10    1
    15     4    11    1
    16    11     1    1
    17     9     3    1
    18    16    17    1
    19    14    15    1
    20    10    12    1
@<TRIPOS>MOLECULE
*****
 19 20 0 0 0
SMALL
GASTEIGER

@<TRIPOS>ATOM
      1 C         138.9511  139.1882  164.5674 C.2     1  UNL1        0.1535
      2 N         140.4146  139.4483  164.7685 N.2     1  UNL1       -0.2470
      3 C         140.6499  139.6642  166.2342 C.3     1  UNL1        0.1723
      4 C         139.3318  139.5375  166.9388 C.3     1  UNL1        0.1938
      5 O         139.2579  139.7063  168.4274 O.3     1  UNL1       -0.3399
      6 C         140.5022  140.0019  169.2114 C.3     1  UNL1        0.1803
      7 C         141.8203  140.1286  168.5068 C.3     1  UNL1        0.2189
      8 F         143.0644  140.4242  169.2907 F       1  UNL1       -0.2319
      9 C         141.8941  139.9598  167.0181 C.3     1  UNL1        0.1711
     10 O         143.2122  140.0865  166.3134 O.3     1  UNL1       -0.3796
     11 S         138.2819  139.2433  165.9087 S.3     1  UNL1       -0.0497
     12 H         143.9083  140.2773  166.9614 H       1  UNL1        0.2105
     13 C         140.4283  140.1707  170.7000 C.3     1  UNL1        0.1696
     14 O         139.6524  139.1901  171.5284 O.3     1  UNL1       -0.3794
     15 H         138.7096  139.2573  171.3104 H       1  UNL1        0.2105
     16 N         138.2754  138.9201  163.2553 N.pl3   1  UNL1       -0.3135
     17 H         138.1085  137.9934  162.9679 H       1  UNL1        0.1487
     18 C         137.4325  141.3642  162.9989 C.3     1  UNL1        0.0230
     19 C         137.8539  140.0638  162.3812 C.3     1  UNL1        0.0887
@<TRIPOS>BOND
     1    18    19    1
     2    19    16    1
     3    16     1    1
     4     1     2    2
     5     3     2    1
     6     3     4    1
     7     4     5    1
     8     5     6    1
     9     6    13    1
    10    13    14    1
    11     6     7    1
    12     7     8    1
    13     7     9    1
    14     9    10    1
    15     4    11    1
    16    11     1    1
    17     9     3    1
    18    16    17    1
    19    14    15    1
    20    10    12    1
@<TRIPOS>MOLECULE
*****
 19 20 0 0 0
SMALL
GASTEIGER

@<TRIPOS>ATOM
      1 C         142.1826  139.1107  166.4984 C.2     1  UNL1        0.1535
      2 N         142.2401  138.1755  165.3271 N.2     1  UNL1       -0.2470
      3 C         141.1370  138.5484  164.3815 C.3     1  UNL1        0.1723
      4 C         140.3977  139.7141  164.9685 C.3     1  UNL1        0.1938
      5 O         139.2316  140.3086  164.2358 O.3     1  UNL1       -0.3399
      6 C         138.8048  139.7373  162.9161 C.3     1  UNL1        0.1803
      7 C         139.5441  138.5716  162.3291 C.3     1  UNL1        0.2189
      8 F         139.1173  138.0003  161.0095 F       1  UNL1       -0.2319
      9 C         140.7102  137.9772  163.0619 C.3     1  UNL1        0.1711
     10 O         141.4496  136.8114  162.4749 O.3     1  UNL1       -0.3796
     11 S         141.0439  140.0616  166.2768 S.3     1  UNL1       -0.0497
     12 H         141.0482  136.5683  161.6260 H       1  UNL1        0.2105
     13 C         137.6387  140.3318  162.1835 C.3     1  UNL1        0.1696
     14 O         136.6602  141.2037  162.9129 O.3     1  UNL1       -0.3794
     15 H         136.1849  140.6747  163.5725 H       1  UNL1        0.2105
     16 N         143.1023  139.0973  167.6833 N.pl3   1  UNL1       -0.3135
     17 H         143.9542  138.6058  167.6397 H       1  UNL1        0.1487
     18 C         142.2968  139.0694  170.1532 C.3     1  UNL1        0.0230
     19 C         142.7239  139.8327  168.9347 C.3     1  UNL1        0.0887
@<TRIPOS>BOND
     1    18    19    1
     2    19    16    1
     3    16     1    1
     4     1     2    2
     5     3     2    1
     6     3     4    1
     7     4     5    1
     8     5     6    1
     9     6    13    1
    10    13    14    1
    11     6     7    1
    12     7     8    1
    13     7     9    1
    14     9    10    1
    15     4    11    1
    16    11     1    1
    17     9     3    1
    18    16    17    1
    19    14    15    1
    20    10    12    1
@<TRIPOS>MOLECULE
*****
 19 20 0 0 0
SMALL
GASTEIGER

@<TRIPOS>ATOM
      1 C         138.7104  143.7718  162.3447 C.2     1  UNL1        0.1535
      2 N         137.8189  142.7806  161.6573 N.2     1  UNL1       -0.2470
      3 C         138.2597  141.4042  162.0587 C.3     1  UNL1        0.1723
      4 C         139.4238  141.5447  162.9943 C.3     1  UNL1        0.1938
      5 O         140.0797  140.3222  163.5643 O.3     1  UNL1       -0.3399
      6 C         139.5716  138.9589  163.1989 C.3     1  UNL1        0.1803
      7 C         138.4075  138.8183  162.2633 C.3     1  UNL1        0.2189
      8 F         137.8994  137.4552  161.8979 F       1  UNL1       -0.2319
      9 C         137.7516  140.0410  161.6932 C.3     1  UNL1        0.1711
     10 O         136.5876  139.9004  160.7577 O.3     1  UNL1       -0.3796
     11 S         139.7023  143.0080  163.1710 S.3     1  UNL1       -0.0497
     12 H         136.3887  138.9599  160.6281 H       1  UNL1        0.2105
     13 C         140.2275  137.7364  163.7690 C.3     1  UNL1        0.1696
     14 O         141.0657  136.8561  162.8900 O.3     1  UNL1       -0.3794
     15 H         140.5030  136.4401  162.2183 H       1  UNL1        0.2105
     16 N         138.6251  145.2647  162.2265 N.pl3   1  UNL1       -0.3135
     17 H         137.8209  145.7382  162.5402 H       1  UNL1        0.1487
     18 C         140.5050  145.4869  160.4470 C.3     1  UNL1        0.0230
     19 C         139.7649  146.0363  161.6305 C.3     1  UNL1        0.0887
@<TRIPOS>BOND
     1    18    19    1
     2    19    16    1
     3    16     1    1
     4     1     2    2
     5     3     2    1
     6     3     4    1
     7     4     5    1
     8     5     6    1
     9     6    13    1
    10    13    14    1
    11     6     7    1
    12     7     8    1
    13     7     9    1
    14     9    10    1
    15     4    11    1
    16    11     1    1
    17     9     3    1
    18    16    17    1
    19    14    15    1
    20    10    12    1
@<TRIPOS>MOLECULE
*****
 19 20 0 0 0
SMALL
GASTEIGER

@<TRIPOS>ATOM
      1 C         138.2742  141.8467  161.5317 C.2     1  UNL1        0.1535
      2 N         138.7897  140.4419  161.4279 N.2     1  UNL1       -0.2470
      3 C         138.6516  139.7966  162.7750 C.3     1  UNL1        0.1723
      4 C         138.0508  140.8027  163.7114 C.3     1  UNL1        0.1938
      5 O         137.7937  140.4351  165.1427 O.3     1  UNL1       -0.3399
      6 C         138.1375  139.0614  165.6377 C.3     1  UNL1        0.1803
      7 C         138.7383  138.0554  164.7013 C.3     1  UNL1        0.2189
      8 F         139.0821  136.6818  165.1962 F       1  UNL1       -0.2319
      9 C         138.9954  138.4230  163.2699 C.3     1  UNL1        0.1711
     10 O         139.5963  137.4170  162.3334 O.3     1  UNL1       -0.3796
     11 S         137.8175  142.0696  162.9430 S.3     1  UNL1       -0.0497
     12 H         139.7563  136.5872  162.8097 H       1  UNL1        0.2105
     13 C         137.8804  138.6938  167.0690 C.3     1  UNL1        0.1696
     14 O         136.8989  137.6089  167.4000 O.3     1  UNL1       -0.3794
     15 H         136.0071  137.8899  167.1419 H       1  UNL1        0.2105
     16 N         138.2242  142.8520  160.4196 N.pl3   1  UNL1       -0.3135
     17 H         137.9749  143.7851  160.6104 H       1  UNL1        0.1487
     18 C         139.5029  143.2558  158.1944 C.3     1  UNL1        0.0230
     19 C         138.5538  142.4356  159.0168 C.3     1  UNL1        0.0887
@<TRIPOS>BOND
     1    18    19    1
     2    19    16    1
     3    16     1    1
     4     1     2    2
     5     3     2    1
     6     3     4    1
     7     4     5    1
     8     5     6    1
     9     6    13    1
    10    13    14    1
    11     6     7    1
    12     7     8    1
    13     7     9    1
    14     9    10    1
    15     4    11    1
    16    11     1    1
    17     9     3    1
    18    16    17    1
    19    14    15    1
    20    10    12    1
@<TRIPOS>MOLECULE
*****
 19 20 0 0 0
SMALL
GASTEIGER

@<TRIPOS>ATOM
      1 C         140.8741  140.7515  168.9097 C.2     1  UNL1        0.1535
      2 N         139.5877  140.1247  168.4601 N.2     1  UNL1       -0.2470
      3 C         139.8004  139.5653  167.0847 C.3     1  UNL1        0.1723
      4 C         141.2183  139.8464  166.6842 C.3     1  UNL1        0.1938
      5 O         141.7221  139.3984  165.3442 O.3     1  UNL1       -0.3399
      6 C         140.8078  138.6694  164.4047 C.3     1  UNL1        0.1803
      7 C         139.3898  138.3883  164.8052 C.3     1  UNL1        0.2189
      8 F         138.4756  137.6593  163.8657 F       1  UNL1       -0.2319
      9 C         138.8861  138.8363  166.1452 C.3     1  UNL1        0.1711
     10 O         137.4682  138.5552  166.5457 O.3     1  UNL1       -0.3796
     11 S         141.8819  140.5795  167.8121 S.3     1  UNL1       -0.0497
     12 H         137.0180  138.0804  165.8297 H       1  UNL1        0.2105
     13 C         141.3115  138.2215  163.0647 C.3     1  UNL1        0.1696
     14 O         141.3171  136.7629  162.7149 O.3     1  UNL1       -0.3794
     15 H         141.9440  136.2952  163.2886 H       1  UNL1        0.2105
     16 N         141.1112  141.4310  170.2258 N.pl3   1  UNL1       -0.3135
     17 H         141.8210  141.1072  170.8262 H       1  UNL1        0.1487
     18 C         140.3799  143.9000  169.8806 C.3     1  UNL1        0.0230
     19 C         140.2667  142.6039  170.6271 C.3     1  UNL1        0.0887
@<TRIPOS>BOND
     1    18    19    1
     2    19    16    1
     3    16     1    1
     4     1     2    2
     5     3     2    1
     6     3     4    1
     7     4     5    1
     8     5     6    1
     9     6    13    1
    10    13    14    1
    11     6     7    1
    12     7     8    1
    13     7     9    1
    14     9    10    1
    15     4    11    1
    16    11     1    1
    17     9     3    1
    18    16    17    1
    19    14    15    1
    20    10    12    1
@<TRIPOS>MOLECULE
*****
 19 20 0 0 0
SMALL
GASTEIGER

@<TRIPOS>ATOM
      1 C         142.8677  139.3592  165.6602 C.2     1  UNL1        0.1535
      2 N         143.0657  138.8064  167.0405 N.2     1  UNL1       -0.2470
      3 C         142.4077  139.7402  168.0126 C.3     1  UNL1        0.1723
      4 C         141.8030  140.8701  167.2332 C.3     1  UNL1        0.1938
      5 O         141.0717  141.9675  167.9480 O.3     1  UNL1       -0.3399
      6 C         140.9450  141.9348  169.4423 C.3     1  UNL1        0.1803
      7 C         141.5496  140.8048  170.2218 C.3     1  UNL1        0.2189
      8 F         141.4229  140.7722  171.7160 F       1  UNL1       -0.2319
      9 C         142.2810  139.7075  169.5069 C.3     1  UNL1        0.1711
     10 O         142.8856  138.5775  170.2863 O.3     1  UNL1       -0.3796
     11 S         142.0874  140.6347  165.7793 S.3     1  UNL1       -0.0497
     12 H         142.7139  138.7087  171.2319 H       1  UNL1        0.2105
     13 C         140.2136  143.0321  170.1571 C.3     1  UNL1        0.1696
     14 O         140.8258  144.3975  170.2612 O.3     1  UNL1       -0.3794
     15 H         141.6257  144.3524  170.8081 H       1  UNL1        0.2105
     16 N         143.3631  138.7445  164.3848 N.pl3   1  UNL1       -0.3135
     17 H         144.3231  138.7678  164.1675 H       1  UNL1        0.1487
     18 C         141.2357  137.3099  163.9773 C.3     1  UNL1        0.0230
     19 C         142.3960  138.0944  163.4403 C.3     1  UNL1        0.0887
@<TRIPOS>BOND
     1    18    19    1
     2    19    16    1
     3    16     1    1
     4     1     2    2
     5     3     2    1
     6     3     4    1
     7     4     5    1
     8     5     6    1
     9     6    13    1
    10    13    14    1
    11     6     7    1
    12     7     8    1
    13     7     9    1
    14     9    10    1
    15     4    11    1
    16    11     1    1
    17     9     3    1
    18    16    17    1
    19    14    15    1
    20    10    12    1
