@<TRIPOS>MOLECULE
*****
 25 28 0 0 0
SMALL
GASTEIGER

@<TRIPOS>ATOM
      1 C         138.4977  139.0967  166.3426 C.3     1  UNL1        0.1473
      2 O         137.2286  138.6309  166.9923 O.3     1  UNL1       -0.3787
      3 H         136.5959  138.3600  166.3087 H       1  UNL1        0.2108
      4 C         138.6223  139.0876  164.8478 C.ar    1  UNL1        0.0087
      5 C         138.9582  137.8135  164.1309 C.ar    1  UNL1        0.0188
      6 C         139.0828  137.8044  162.6362 C.ar    1  UNL1        0.0986
      7 N         138.8714  139.0694  161.8582 N.ar    1  UNL1       -0.2439
      8 C         138.5355  140.3435  162.5751 C.ar    1  UNL1        0.0813
      9 C         138.3242  141.6084  161.7971 C.ar    1  UNL1        0.0222
     10 C         137.9883  142.8825  162.5139 C.ar    1  UNL1        0.0384
     11 C         137.8637  142.8917  164.0088 C.ar    1  UNL1        0.1388
     12 C         138.0751  141.6267  164.7867 C.ar    1  UNL1        0.0382
     13 C         138.4110  140.3526  164.0698 C.ar    1  UNL1        0.0190
     14 O         137.5278  144.1657  164.7256 O.3     1  UNL1       -0.4714
     15 C         138.5972  144.9155  165.4634 C.3     1  UNL1        0.2525
     16 C         141.9317  140.5218  168.8778 C.3     1  UNL1        0.0381
     17 C         140.5867  140.2881  169.4996 C.3     1  UNL1        0.0765
     18 N         139.4421  139.8131  168.6546 N.3     1  UNL1       -0.2712
     19 C         139.6424  139.5718  167.1877 C.3     1  UNL1        0.0722
     20 C         140.9873  139.8054  166.5659 C.3     1  UNL1        0.0177
     21 C         142.1319  140.2804  167.4110 C.3     1  UNL1        0.0082
     22 C         140.8938  139.9180  167.2505 C.3     1  UNL1        0.0192
     23 C         140.1766  139.7934  167.5820 C.3     1  UNL1        0.0888
     24 C         143.6450  142.3688  169.5127 C.2     1  UNL1       -0.0049
     25 C         143.0763  140.9968  169.7229 C.2     1  UNL1       -0.0251
@<TRIPOS>BOND
     1    24    25    2
     2    16    25    1
     3    16    17    1
     4    17    18    1
     5    18    19    1
     6    19    20    1
     7    21    20    1
     8    21    22    1
     9    23    22    1
    10    23     1    1
    11     1     2    1
    12     1     4    1
    13     4     5   ar
    14     5     6   ar
    15     6     7   ar
    16     7     8   ar
    17     8     9   ar
    18     9    10   ar
    19    10    11   ar
    20    11    14    1
    21    14    15    1
    22    11    12   ar
    23    12    13   ar
    24    21    16    1
    25    13     4   ar
    26    23    18    1
    27    13     8   ar
    28     2     3    1
@<TRIPOS>MOLECULE
*****
 25 28 0 0 0
SMALL
GASTEIGER

@<TRIPOS>ATOM
      1 C         143.4525  138.6406  166.2680 C.3     1  UNL1        0.1473
      2 O         144.1852  137.4604  166.8338 O.3     1  UNL1       -0.3787
      3 H         144.3825  136.8310  166.1226 H       1  UNL1        0.2108
      4 C         143.1419  138.6980  164.8016 C.ar    1  UNL1        0.0087
      5 C         144.2132  139.0768  163.8224 C.ar    1  UNL1        0.0188
      6 C         143.9027  139.1342  162.3560 C.ar    1  UNL1        0.0986
      7 N         142.5208  138.8129  161.8689 N.ar    1  UNL1       -0.2439
      8 C         141.4496  138.4341  162.8481 C.ar    1  UNL1        0.0813
      9 C         140.0678  138.1128  162.3609 C.ar    1  UNL1        0.0222
     10 C         138.9965  137.7340  163.3401 C.ar    1  UNL1        0.0384
     11 C         139.3070  137.6766  164.8066 C.ar    1  UNL1        0.1388
     12 C         140.6888  137.9979  165.2937 C.ar    1  UNL1        0.0382
     13 C         141.7601  138.3767  164.3144 C.ar    1  UNL1        0.0190
     14 O         138.2357  137.2978  165.7857 O.3     1  UNL1       -0.4714
     15 C         137.7264  138.3097  166.7689 C.3     1  UNL1        0.2525
     16 C         142.1856  142.0090  168.9697 C.3     1  UNL1        0.0381
     17 C         142.4355  140.6440  169.5394 C.3     1  UNL1        0.0765
     18 N         142.8578  139.5212  168.6389 N.3     1  UNL1       -0.2712
     19 C         143.0302  139.7634  167.1686 C.3     1  UNL1        0.0722
     20 C         142.7803  141.1283  166.5989 C.3     1  UNL1        0.0177
     21 C         142.3580  142.2511  167.4995 C.3     1  UNL1        0.0082
     22 C         142.6998  141.0153  167.2850 C.3     1  UNL1        0.0192
     23 C         142.8331  140.2874  167.5888 C.3     1  UNL1        0.0888
     24 C         140.3758  143.6926  169.7696 C.2     1  UNL1       -0.0049
     25 C         141.7633  143.1318  169.8703 C.2     1  UNL1       -0.0251
@<TRIPOS>BOND
     1    24    25    2
     2    16    25    1
     3    16    17    1
     4    17    18    1
     5    18    19    1
     6    19    20    1
     7    21    20    1
     8    21    22    1
     9    23    22    1
    10    23     1    1
    11     1     2    1
    12     1     4    1
    13     4     5   ar
    14     5     6   ar
    15     6     7   ar
    16     7     8   ar
    17     8     9   ar
    18     9    10   ar
    19    10    11   ar
    20    11    14    1
    21    14    15    1
    22    11    12   ar
    23    12    13   ar
    24    21    16    1
    25    13     4   ar
    26    23    18    1
    27    13     8   ar
    28     2     3    1
@<TRIPOS>MOLECULE
*****
 25 28 0 0 0
SMALL
GASTEIGER

@<TRIPOS>ATOM
      1 C         137.8147  140.6879  163.3470 C.3     1  UNL1        0.1473
      2 O         136.4838  141.3545  163.1619 O.3     1  UNL1       -0.3787
      3 H         136.2585  141.3703  162.2185 H       1  UNL1        0.2108
      4 C         138.5677  140.1729  162.1563 C.ar    1  UNL1        0.0087
      5 C         138.6876  138.6956  161.9262 C.ar    1  UNL1        0.0188
      6 C         139.4406  138.1807  160.7355 C.ar    1  UNL1        0.0986
      7 N         140.0737  139.1431  159.7749 N.ar    1  UNL1       -0.2439
      8 C         139.9539  140.6205  160.0049 C.ar    1  UNL1        0.0813
      9 C         140.5870  141.5830  159.0443 C.ar    1  UNL1        0.0222
     10 C         140.4671  143.0603  159.2744 C.ar    1  UNL1        0.0384
     11 C         139.7141  143.5753  160.4651 C.ar    1  UNL1        0.1388
     12 C         139.0810  142.6128  161.4258 C.ar    1  UNL1        0.0382
     13 C         139.2009  141.1354  161.1956 C.ar    1  UNL1        0.0190
     14 O         139.5942  145.0527  160.6952 O.3     1  UNL1       -0.4714
     15 C         139.9900  145.6404  162.0173 C.3     1  UNL1        0.2525
     16 C         139.5485  140.2330  167.4746 C.3     1  UNL1        0.0381
     17 C         139.9160  141.4193  166.6333 C.3     1  UNL1        0.0765
     18 N         139.3381  141.5709  165.2575 N.3     1  UNL1       -0.2712
     19 C         138.3926  140.5363  164.7229 C.3     1  UNL1        0.0722
     20 C         138.0252  139.3501  165.5642 C.3     1  UNL1        0.0177
     21 C         138.6031  139.1984  166.9400 C.3     1  UNL1        0.0082
     22 C         138.4664  139.8329  165.8136 C.3     1  UNL1        0.0192
     23 C         138.6623  140.4655  165.3650 C.3     1  UNL1        0.0888
     24 C         139.5251  140.8294  170.0032 C.2     1  UNL1       -0.0049
     25 C         140.1264  140.0813  168.8505 C.2     1  UNL1       -0.0251
@<TRIPOS>BOND
     1    24    25    2
     2    16    25    1
     3    16    17    1
     4    17    18    1
     5    18    19    1
     6    19    20    1
     7    21    20    1
     8    21    22    1
     9    23    22    1
    10    23     1    1
    11     1     2    1
    12     1     4    1
    13     4     5   ar
    14     5     6   ar
    15     6     7   ar
    16     7     8   ar
    17     8     9   ar
    18     9    10   ar
    19    10    11   ar
    20    11    14    1
    21    14    15    1
    22    11    12   ar
    23    12    13   ar
    24    21    16    1
    25    13     4   ar
    26    23    18    1
    27    13     8   ar
    28     2     3    1
@<TRIPOS>MOLECULE
*****
 25 28 0 0 0
SMALL
GASTEIGER

@<TRIPOS>ATOM
      1 C         140.0352  140.6858  164.8722 C.3     1  UNL1        0.1473
      2 O         139.7188  139.6322  163.8526 O.3     1  UNL1       -0.3787
      3 H         139.3509  140.0507  163.0587 H       1  UNL1        0.2108
      4 C         139.7678  142.1298  164.5665 C.ar    1  UNL1        0.0087
      5 C         138.3656  142.6601  164.6178 C.ar    1  UNL1        0.0188
      6 C         138.0982  144.1040  164.3121 C.ar    1  UNL1        0.0986
      7 N         139.2330  145.0176  163.9550 N.ar    1  UNL1       -0.2439
      8 C         140.6352  144.4874  163.9037 C.ar    1  UNL1        0.0813
      9 C         141.7700  145.4010  163.5466 C.ar    1  UNL1        0.0222
     10 C         143.1722  144.8707  163.4953 C.ar    1  UNL1        0.0384
     11 C         143.4396  143.4267  163.8010 C.ar    1  UNL1        0.1388
     12 C         142.3048  142.5131  164.1581 C.ar    1  UNL1        0.0382
     13 C         140.9026  143.0434  164.2094 C.ar    1  UNL1        0.0190
     14 O         144.8418  142.8965  163.7497 O.3     1  UNL1       -0.4714
     15 C         145.1304  141.6068  163.0401 C.3     1  UNL1        0.2525
     16 C         141.7870  139.5149  168.8484 C.3     1  UNL1        0.0381
     17 C         142.6047  139.3761  167.5985 C.3     1  UNL1        0.0765
     18 N         142.0208  139.7664  166.2731 N.3     1  UNL1       -0.2712
     19 C         140.6192  140.2955  166.1976 C.3     1  UNL1        0.0722
     20 C         139.8016  140.4342  167.4475 C.3     1  UNL1        0.0177
     21 C         140.3855  140.0439  168.7729 C.3     1  UNL1        0.0082
     22 C         140.4556  140.1873  167.4828 C.3     1  UNL1        0.0192
     23 C         140.8917  140.1133  166.8162 C.3     1  UNL1        0.0888
     24 C         143.1621  137.8565  170.3007 C.2     1  UNL1       -0.0049
     25 C         142.3710  139.1246  170.1738 C.2     1  UNL1       -0.0251
@<TRIPOS>BOND
     1    24    25    2
     2    16    25    1
     3    16    17    1
     4    17    18    1
     5    18    19    1
     6    19    20    1
     7    21    20    1
     8    21    22    1
     9    23    22    1
    10    23     1    1
    11     1     2    1
    12     1     4    1
    13     4     5   ar
    14     5     6   ar
    15     6     7   ar
    16     7     8   ar
    17     8     9   ar
    18     9    10   ar
    19    10    11   ar
    20    11    14    1
    21    14    15    1
    22    11    12   ar
    23    12    13   ar
    24    21    16    1
    25    13     4   ar
    26    23    18    1
    27    13     8   ar
    28     2     3    1
@<TRIPOS>MOLECULE
*****
 25 28 0 0 0
SMALL
GASTEIGER

@<TRIPOS>ATOM
      1 C         139.4805  140.2915  165.4200 C.3     1  UNL1        0.1473
      2 O         138.2093  139.5019  165.5220 O.3     1  UNL1       -0.3787
      3 H         138.3748  138.6854  166.0188 H       1  UNL1        0.2108
      4 C         140.7405  139.7682  166.0434 C.ar    1  UNL1        0.0087
      5 C         141.7344  139.0166  165.2084 C.ar    1  UNL1        0.0188
      6 C         142.9943  138.4933  165.8318 C.ar    1  UNL1        0.0986
      7 N         143.2604  138.7216  167.2903 N.ar    1  UNL1       -0.2439
      8 C         142.2665  139.4732  168.1253 C.ar    1  UNL1        0.0813
      9 C         142.5326  139.7014  169.5837 C.ar    1  UNL1        0.0222
     10 C         141.5387  140.4530  170.4188 C.ar    1  UNL1        0.0384
     11 C         140.2787  140.9763  169.7954 C.ar    1  UNL1        0.1388
     12 C         140.0127  140.7480  168.3369 C.ar    1  UNL1        0.0382
     13 C         141.0066  139.9964  167.5019 C.ar    1  UNL1        0.0190
     14 O         139.2848  141.7279  170.6304 O.3     1  UNL1       -0.4714
     15 C         139.5292  143.1677  170.9726 C.3     1  UNL1        0.2525
     16 C         139.5146  144.2302  163.2438 C.3     1  UNL1        0.0381
     17 C         139.4373  142.9469  162.4709 C.3     1  UNL1        0.0765
     18 N         139.4259  141.6340  163.1963 N.3     1  UNL1       -0.2712
     19 C         139.4919  141.6044  164.6946 C.3     1  UNL1        0.0722
     20 C         139.5691  142.8876  165.4674 C.3     1  UNL1        0.0177
     21 C         139.5805  144.2005  164.7420 C.3     1  UNL1        0.0082
     22 C         139.5384  142.9014  164.7683 C.3     1  UNL1        0.0192
     23 C         139.4972  142.2171  164.3561 C.3     1  UNL1        0.0888
     24 C         140.2586  145.6741  161.2161 C.2     1  UNL1       -0.0049
     25 C         139.5259  145.5430  162.5184 C.2     1  UNL1       -0.0251
@<TRIPOS>BOND
     1    24    25    2
     2    16    25    1
     3    16    17    1
     4    17    18    1
     5    18    19    1
     6    19    20    1
     7    21    20    1
     8    21    22    1
     9    23    22    1
    10    23     1    1
    11     1     2    1
    12     1     4    1
    13     4     5   ar
    14     5     6   ar
    15     6     7   ar
    16     7     8   ar
    17     8     9   ar
    18     9    10   ar
    19    10    11   ar
    20    11    14    1
    21    14    15    1
    22    11    12   ar
    23    12    13   ar
    24    21    16    1
    25    13     4   ar
    26    23    18    1
    27    13     8   ar
    28     2     3    1
@<TRIPOS>MOLECULE
*****
 25 28 0 0 0
SMALL
GASTEIGER

@<TRIPOS>ATOM
      1 C         142.1253  139.8921  164.7869 C.3     1  UNL1        0.1473
      2 O         141.4986  138.9067  163.8457 O.3     1  UNL1       -0.3787
      3 H         141.8565  139.0387  162.9538 H       1  UNL1        0.2108
      4 C         143.1389  140.8743  164.2790 C.ar    1  UNL1        0.0087
      5 C         144.5679  140.4537  164.1025 C.ar    1  UNL1        0.0188
      6 C         145.5814  141.4359  163.5946 C.ar    1  UNL1        0.0986
      7 N         145.1661  142.8386  163.2631 N.ar    1  UNL1       -0.2439
      8 C         143.7371  143.2592  163.4396 C.ar    1  UNL1        0.0813
      9 C         143.3218  144.6619  163.1082 C.ar    1  UNL1        0.0222
     10 C         141.8928  145.0825  163.2846 C.ar    1  UNL1        0.0384
     11 C         140.8792  144.1003  163.7926 C.ar    1  UNL1        0.1388
     12 C         141.2945  142.6976  164.1240 C.ar    1  UNL1        0.0382
     13 C         142.7236  142.2770  163.9475 C.ar    1  UNL1        0.0190
     14 O         139.4502  144.5209  163.9691 O.3     1  UNL1       -0.4714
     15 C         138.8942  144.7285  165.3467 C.3     1  UNL1        0.2525
     16 C         140.9645  139.9024  169.1346 C.3     1  UNL1        0.0381
     17 C         139.9558  140.2734  168.0882 C.3     1  UNL1        0.0765
     18 N         140.3427  140.2699  166.6389 N.3     1  UNL1       -0.2712
     19 C         141.7384  139.8956  166.2362 C.3     1  UNL1        0.0722
     20 C         142.7470  139.5246  167.2826 C.3     1  UNL1        0.0177
     21 C         142.3601  139.5280  168.7318 C.3     1  UNL1        0.0082
     22 C         142.0957  139.6993  167.4706 C.3     1  UNL1        0.0192
     23 C         141.5578  139.8972  166.9125 C.3     1  UNL1        0.0888
     24 C         140.9235  141.0808  171.4497 C.2     1  UNL1       -0.0049
     25 C         140.5776  139.9058  170.5839 C.2     1  UNL1       -0.0251
@<TRIPOS>BOND
     1    24    25    2
     2    16    25    1
     3    16    17    1
     4    17    18    1
     5    18    19    1
     6    19    20    1
     7    21    20    1
     8    21    22    1
     9    23    22    1
    10    23     1    1
    11     1     2    1
    12     1     4    1
    13     4     5   ar
    14     5     6   ar
    15     6     7   ar
    16     7     8   ar
    17     8     9   ar
    18     9    10   ar
    19    10    11   ar
    20    11    14    1
    21    14    15    1
    22    11    12   ar
    23    12    13   ar
    24    21    16    1
    25    13     4   ar
    26    23    18    1
    27    13     8   ar
    28     2     3    1
@<TRIPOS>MOLECULE
*****
 25 28 0 0 0
SMALL
GASTEIGER

@<TRIPOS>ATOM
      1 C         142.9782  138.7494  166.1440 C.3     1  UNL1        0.1473
      2 O         144.2045  138.0660  166.6723 O.3     1  UNL1       -0.3787
      3 H         144.4727  137.3637  166.0593 H       1  UNL1        0.2108
      4 C         142.3706  138.3029  164.8473 C.ar    1  UNL1        0.0087
      5 C         141.2970  137.2554  164.8435 C.ar    1  UNL1        0.0188
      6 C         140.6894  136.8089  163.5468 C.ar    1  UNL1        0.0986
      7 N         141.1554  137.4099  162.2539 N.ar    1  UNL1       -0.2439
      8 C         142.2290  138.4574  162.2577 C.ar    1  UNL1        0.0813
      9 C         142.6951  139.0584  160.9648 C.ar    1  UNL1        0.0222
     10 C         143.7687  140.1059  160.9686 C.ar    1  UNL1        0.0384
     11 C         144.3763  140.5525  162.2653 C.ar    1  UNL1        0.1388
     12 C         143.9103  139.9515  163.5582 C.ar    1  UNL1        0.0382
     13 C         142.8366  138.9039  163.5544 C.ar    1  UNL1        0.0190
     14 O         145.4499  141.6000  162.2691 O.3     1  UNL1       -0.4714
     15 C         145.1070  143.0265  161.9571 C.3     1  UNL1        0.2525
     16 C         141.1222  142.1394  168.4491 C.3     1  UNL1        0.0381
     17 C         140.5744  140.7498  168.5874 C.3     1  UNL1        0.0765
     18 N         141.1931  139.6198  167.8191 N.3     1  UNL1       -0.2712
     19 C         142.3595  139.8794  166.9124 C.3     1  UNL1        0.0722
     20 C         142.9073  141.2689  166.7741 C.3     1  UNL1        0.0177
     21 C         142.2886  142.3989  167.5424 C.3     1  UNL1        0.0082
     22 C         142.3629  141.1478  167.1972 C.3     1  UNL1        0.0192
     23 C         142.0708  140.4067  167.2709 C.3     1  UNL1        0.0888
     24 C         139.8307  143.0032  170.5313 C.2     1  UNL1       -0.0049
     25 C         140.5035  143.2694  169.2174 C.2     1  UNL1       -0.0251
@<TRIPOS>BOND
     1    24    25    2
     2    16    25    1
     3    16    17    1
     4    17    18    1
     5    18    19    1
     6    19    20    1
     7    21    20    1
     8    21    22    1
     9    23    22    1
    10    23     1    1
    11     1     2    1
    12     1     4    1
    13     4     5   ar
    14     5     6   ar
    15     6     7   ar
    16     7     8   ar
    17     8     9   ar
    18     9    10   ar
    19    10    11   ar
    20    11    14    1
    21    14    15    1
    22    11    12   ar
    23    12    13   ar
    24    21    16    1
    25    13     4   ar
    26    23    18    1
    27    13     8   ar
    28     2     3    1
@<TRIPOS>MOLECULE
*****
 25 28 0 0 0
SMALL
GASTEIGER

@<TRIPOS>ATOM
      1 C         141.8781  142.1251  166.3493 C.3     1  UNL1        0.1473
      2 O         143.3462  141.9079  166.5674 O.3     1  UNL1       -0.3787
      3 H         143.4752  141.2609  167.2784 H       1  UNL1        0.2108
      4 C         140.8778  141.3811  167.1835 C.ar    1  UNL1        0.0087
      5 C         140.6750  141.7545  168.6220 C.ar    1  UNL1        0.0188
      6 C         139.6747  141.0105  169.4562 C.ar    1  UNL1        0.0986
      7 N         138.8772  139.8931  168.8518 N.ar    1  UNL1       -0.2439
      8 C         139.0799  139.5197  167.4133 C.ar    1  UNL1        0.0813
      9 C         138.2824  138.4022  166.8089 C.ar    1  UNL1        0.0222
     10 C         138.4851  138.0288  165.3704 C.ar    1  UNL1        0.0384
     11 C         139.4855  138.7728  164.5362 C.ar    1  UNL1        0.1388
     12 C         140.2830  139.8902  165.1405 C.ar    1  UNL1        0.0382
     13 C         140.0802  140.2636  166.5791 C.ar    1  UNL1        0.0190
     14 O         139.6882  138.3994  163.0976 O.3     1  UNL1       -0.4714
     15 C         141.0032  137.8353  162.6474 C.3     1  UNL1        0.2525
     16 C         140.4747  145.0086  163.1924 C.3     1  UNL1        0.0381
     17 C         141.8355  144.3862  163.0881 C.3     1  UNL1        0.0765
     18 N         142.3033  143.4250  164.1403 N.3     1  UNL1       -0.2712
     19 C         141.4103  143.0863  165.2970 C.3     1  UNL1        0.0722
     20 C         140.0495  143.7086  165.4013 C.3     1  UNL1        0.0177
     21 C         139.5817  144.6698  164.3490 C.3     1  UNL1        0.0082
     22 C         140.4662  143.8667  164.8616 C.3     1  UNL1        0.0192
     23 C         141.1920  143.5348  164.8059 C.3     1  UNL1        0.0888
     24 C         140.2268  145.6589  160.6893 C.2     1  UNL1       -0.0049
     25 C         140.0069  145.9697  162.1401 C.2     1  UNL1       -0.0251
@<TRIPOS>BOND
     1    24    25    2
     2    16    25    1
     3    16    17    1
     4    17    18    1
     5    18    19    1
     6    19    20    1
     7    21    20    1
     8    21    22    1
     9    23    22    1
    10    23     1    1
    11     1     2    1
    12     1     4    1
    13     4     5   ar
    14     5     6   ar
    15     6     7   ar
    16     7     8   ar
    17     8     9   ar
    18     9    10   ar
    19    10    11   ar
    20    11    14    1
    21    14    15    1
    22    11    12   ar
    23    12    13   ar
    24    21    16    1
    25    13     4   ar
    26    23    18    1
    27    13     8   ar
    28     2     3    1
@<TRIPOS>MOLECULE
*****
 25 28 0 0 0
SMALL
GASTEIGER

@<TRIPOS>ATOM
      1 C         142.1483  141.0731  164.3271 C.3     1  UNL1        0.1473
      2 O         143.1193  141.7793  163.4280 O.3     1  UNL1       -0.3787
      3 H         143.1781  141.3082  162.5821 H       1  UNL1        0.2108
      4 C         141.4491  139.8345  163.8504 C.ar    1  UNL1        0.0087
      5 C         142.0486  138.4855  164.1160 C.ar    1  UNL1        0.0188
      6 C         141.3494  137.2471  163.6394 C.ar    1  UNL1        0.0986
      7 N         140.0506  137.3576  162.8971 N.ar    1  UNL1       -0.2439
      8 C         139.4511  138.7067  162.6315 C.ar    1  UNL1        0.0813
      9 C         138.1523  138.8172  161.8892 C.ar    1  UNL1        0.0222
     10 C         137.5527  140.1663  161.6236 C.ar    1  UNL1        0.0384
     11 C         138.2520  141.4048  162.1003 C.ar    1  UNL1        0.1388
     12 C         139.5507  141.2943  162.8426 C.ar    1  UNL1        0.0382
     13 C         140.1503  139.9451  163.1082 C.ar    1  UNL1        0.0190
     14 O         137.6524  142.7539  161.8347 O.3     1  UNL1       -0.4714
     15 C         137.7787  143.8450  162.8561 C.3     1  UNL1        0.2525
     16 C         141.3328  142.6699  168.4545 C.3     1  UNL1        0.0381
     17 C         142.5911  141.8996  168.1834 C.3     1  UNL1        0.0765
     18 N         142.8630  141.3674  166.8076 N.3     1  UNL1       -0.2712
     19 C         141.8765  141.6054  165.7029 C.3     1  UNL1        0.0722
     20 C         140.6183  142.3756  165.9740 C.3     1  UNL1        0.0177
     21 C         140.3465  142.9079  167.3498 C.3     1  UNL1        0.0082
     22 C         141.0786  142.2646  166.4895 C.3     1  UNL1        0.0192
     23 C         141.7496  141.8538  166.3449 C.3     1  UNL1        0.0888
     24 C         139.8004  142.8191  170.5471 C.2     1  UNL1       -0.0049
     25 C         141.0610  143.2022  169.8303 C.2     1  UNL1       -0.0251
@<TRIPOS>BOND
     1    24    25    2
     2    16    25    1
     3    16    17    1
     4    17    18    1
     5    18    19    1
     6    19    20    1
     7    21    20    1
     8    21    22    1
     9    23    22    1
    10    23     1    1
    11     1     2    1
    12     1     4    1
    13     4     5   ar
    14     5     6   ar
    15     6     7   ar
    16     7     8   ar
    17     8     9   ar
    18     9    10   ar
    19    10    11   ar
    20    11    14    1
    21    14    15    1
    22    11    12   ar
    23    12    13   ar
    24    21    16    1
    25    13     4   ar
    26    23    18    1
    27    13     8   ar
    28     2     3    1
