@<TRIPOS>MOLECULE
*****
 26 29 0 0 0
SMALL
GASTEIGER

@<TRIPOS>ATOM
      1 O         144.0914  138.0871  166.9746 O.2     1  UNL1       -0.2698
      2 C         142.8873  138.7242  166.3468 C.2     1  UNL1        0.2519
      3 N         142.0777  139.7222  167.1205 N.am    1  UNL1       -0.2778
      4 C         142.4926  138.3634  164.9453 C.ar    1  UNL1        0.0880
      5 C         141.3021  137.4832  164.7044 C.ar    1  UNL1        0.0076
      6 C         140.9076  137.1224  163.3030 C.ar    1  UNL1        0.0003
      7 C         141.7035  137.6417  162.1425 C.ar    1  UNL1        0.0031
      8 C         142.8939  138.5219  162.3834 C.ar    1  UNL1        0.0376
      9 C         143.2885  138.8827  163.7848 C.ar    1  UNL1        0.1496
     10 O         144.4791  139.7629  164.0258 O.3     1  UNL1       -0.4533
     11 C         144.3486  141.2519  163.9003 C.ar    1  UNL1        0.1453
     12 C         144.4527  141.9030  162.5530 C.ar    1  UNL1        0.0375
     13 C         144.3222  143.3921  162.4275 C.ar    1  UNL1        0.0031
     14 C         144.0875  144.2300  163.6494 C.ar    1  UNL1        0.0002
     15 C         143.9834  143.5788  164.9967 C.ar    1  UNL1        0.0031
     16 C         144.1139  142.0898  165.1221 C.ar    1  UNL1        0.0375
     17 C         142.4723  140.0831  168.5220 C.3     1  UNL1        0.0926
     18 C         143.0305  141.4017  168.9689 C.3     1  UNL1        0.0383
     19 C         143.2812  141.3223  170.4457 C.3     1  UNL1        0.0704
     20 N         142.8779  139.9546  170.9115 N.3     1  UNL1       -0.2960
     21 C         142.3780  139.1888  169.7225 C.3     1  UNL1        0.0887
     22 H         142.1385  140.0309  171.6099 H       1  UNL1        0.1233
     23 C         140.8735  140.3594  166.4927 C.3     1  UNL1        0.0756
     24 C         139.3927  140.1323  166.5682 C.3     1  UNL1        0.0199
     25 C         139.1707  141.2605  165.6049 C.3     1  UNL1        0.0034
     26 C         140.6515  141.4876  165.5294 C.3     1  UNL1        0.0199
@<TRIPOS>BOND
     1     1     2    2
     2     2     4    1
     3     4     5   ar
     4     5     6   ar
     5     6     7   ar
     6     7     8   ar
     7     8     9   ar
     8     9    10    1
     9    10    11    1
    10    11    12   ar
    11    12    13   ar
    12    13    14   ar
    13    14    15   ar
    14    15    16   ar
    15     2     3   am
    16     3    23    1
    17    23    24    1
    18    24    25    1
    19    25    26    1
    20    17     3    1
    21    17    18    1
    22    18    19    1
    23    19    20    1
    24    20    21    1
    25     9     4   ar
    26    16    11   ar
    27    26    23    1
    28    21    17    1
    29    20    22    1
@<TRIPOS>MOLECULE
*****
 26 29 0 0 0
SMALL
GASTEIGER

@<TRIPOS>ATOM
      1 O         138.3580  139.0726  167.6980 O.2     1  UNL1       -0.2698
      2 C         139.5392  139.2708  166.7950 C.2     1  UNL1        0.2519
      3 N         140.7915  139.9029  167.3260 N.am    1  UNL1       -0.2778
      4 C         139.4680  138.8370  165.3608 C.ar    1  UNL1        0.0880
      5 C         140.2743  137.6624  164.8917 C.ar    1  UNL1        0.0076
      6 C         140.2031  137.2285  163.4576 C.ar    1  UNL1        0.0003
      7 C         139.3255  137.9693  162.4926 C.ar    1  UNL1        0.0031
      8 C         138.5192  139.1439  162.9617 C.ar    1  UNL1        0.0376
      9 C         138.5904  139.5777  164.3958 C.ar    1  UNL1        0.1496
     10 O         137.7841  140.7524  164.8650 O.3     1  UNL1       -0.4533
     11 C         138.2108  142.1455  164.5084 C.ar    1  UNL1        0.1453
     12 C         137.5791  142.8484  163.3435 C.ar    1  UNL1        0.0375
     13 C         138.0058  144.2415  162.9869 C.ar    1  UNL1        0.0031
     14 C         139.0643  144.9317  163.7952 C.ar    1  UNL1        0.0002
     15 C         139.6960  144.2288  164.9601 C.ar    1  UNL1        0.0031
     16 C         139.2692  142.8357  165.3167 C.ar    1  UNL1        0.0375
     17 C         140.8628  140.3368  168.7601 C.3     1  UNL1        0.0926
     18 C         140.3316  141.6233  169.3194 C.3     1  UNL1        0.0383
     19 C         140.6183  141.6420  170.7916 C.3     1  UNL1        0.0704
     20 N         141.3266  140.3670  171.1422 N.3     1  UNL1       -0.2960
     21 C         141.4777  139.5604  169.8866 C.3     1  UNL1        0.0887
     22 H         140.7796  139.8439  171.8260 H       1  UNL1        0.1233
     23 C         141.9727  140.1012  166.4228 C.3     1  UNL1        0.0756
     24 C         143.2195  139.3237  166.1210 C.3     1  UNL1        0.0199
     25 C         143.6431  140.3816  165.1456 C.3     1  UNL1        0.0034
     26 C         142.3963  141.1591  165.4475 C.3     1  UNL1        0.0199
@<TRIPOS>BOND
     1     1     2    2
     2     2     4    1
     3     4     5   ar
     4     5     6   ar
     5     6     7   ar
     6     7     8   ar
     7     8     9   ar
     8     9    10    1
     9    10    11    1
    10    11    12   ar
    11    12    13   ar
    12    13    14   ar
    13    14    15   ar
    14    15    16   ar
    15     2     3   am
    16     3    23    1
    17    23    24    1
    18    24    25    1
    19    25    26    1
    20    17     3    1
    21    17    18    1
    22    18    19    1
    23    19    20    1
    24    20    21    1
    25     9     4   ar
    26    16    11   ar
    27    26    23    1
    28    21    17    1
    29    20    22    1
@<TRIPOS>MOLECULE
*****
 26 29 0 0 0
SMALL
GASTEIGER

@<TRIPOS>ATOM
      1 O         143.6644  142.4157  166.5615 O.2     1  UNL1       -0.2698
      2 C         142.1739  142.5206  166.4302 C.2     1  UNL1        0.2519
      3 N         141.5707  143.1425  165.2058 N.am    1  UNL1       -0.2778
      4 C         141.2865  142.0034  167.5235 C.ar    1  UNL1        0.0880
      5 C         140.6957  142.9537  168.5224 C.ar    1  UNL1        0.0076
      6 C         139.8083  142.4365  169.6156 C.ar    1  UNL1        0.0003
      7 C         139.5118  140.9691  169.7098 C.ar    1  UNL1        0.0031
      8 C         140.1026  140.0189  168.7109 C.ar    1  UNL1        0.0376
      9 C         140.9900  140.5361  167.6177 C.ar    1  UNL1        0.1496
     10 O         141.5809  139.5858  166.6187 O.3     1  UNL1       -0.4533
     11 C         140.8394  139.2712  165.3533 C.ar    1  UNL1        0.1453
     12 C         139.5070  138.5848  165.4157 C.ar    1  UNL1        0.0375
     13 C         138.7655  138.2701  164.1503 C.ar    1  UNL1        0.0031
     14 C         139.3564  138.6418  162.8226 C.ar    1  UNL1        0.0002
     15 C         140.6886  139.3282  162.7603 C.ar    1  UNL1        0.0031
     16 C         141.4301  139.6428  164.0256 C.ar    1  UNL1        0.0375
     17 C         142.4580  143.6597  164.1125 C.3     1  UNL1        0.0926
     18 C         143.1761  142.8273  163.0919 C.3     1  UNL1        0.0383
     19 C         143.9449  143.7531  162.1966 C.3     1  UNL1        0.0704
     20 N         143.7021  145.1577  162.6638 N.3     1  UNL1       -0.2960
     21 C         142.7832  145.0999  163.8480 C.3     1  UNL1        0.0887
     22 H         143.2701  145.7013  161.9166 H       1  UNL1        0.1233
     23 C         140.0801  143.2474  165.0746 C.3     1  UNL1        0.0756
     24 C         139.0706  144.3364  165.2866 C.3     1  UNL1        0.0199
     25 C         137.9721  143.3955  164.8890 C.3     1  UNL1        0.0034
     26 C         138.9816  142.3065  164.6769 C.3     1  UNL1        0.0199
@<TRIPOS>BOND
     1     1     2    2
     2     2     4    1
     3     4     5   ar
     4     5     6   ar
     5     6     7   ar
     6     7     8   ar
     7     8     9   ar
     8     9    10    1
     9    10    11    1
    10    11    12   ar
    11    12    13   ar
    12    13    14   ar
    13    14    15   ar
    14    15    16   ar
    15     2     3   am
    16     3    23    1
    17    23    24    1
    18    24    25    1
    19    25    26    1
    20    17     3    1
    21    17    18    1
    22    18    19    1
    23    19    20    1
    24    20    21    1
    25     9     4   ar
    26    16    11   ar
    27    26    23    1
    28    21    17    1
    29    20    22    1
@<TRIPOS>MOLECULE
*****
 26 29 0 0 0
SMALL
GASTEIGER

@<TRIPOS>ATOM
      1 O         143.0774  140.3334  168.3528 O.2     1  UNL1       -0.2698
      2 C         142.5040  141.0180  167.1477 C.2     1  UNL1        0.2519
      3 N         141.0759  141.4768  167.1543 N.am    1  UNL1       -0.2778
      4 C         143.3586  141.2438  165.9357 C.ar    1  UNL1        0.0880
      5 C         143.9527  142.5969  165.6785 C.ar    1  UNL1        0.0076
      6 C         144.8073  142.8226  164.4666 C.ar    1  UNL1        0.0003
      7 C         145.0678  141.6953  163.5120 C.ar    1  UNL1        0.0031
      8 C         144.4738  140.3422  163.7693 C.ar    1  UNL1        0.0376
      9 C         143.6192  140.1165  164.9812 C.ar    1  UNL1        0.1496
     10 O         143.0251  138.7633  165.2385 O.3     1  UNL1       -0.4533
     11 C         141.7207  138.3837  164.6025 C.ar    1  UNL1        0.1453
     12 C         140.4731  138.3162  165.4326 C.ar    1  UNL1        0.0375
     13 C         139.1687  137.9366  164.7966 C.ar    1  UNL1        0.0031
     14 C         139.1120  137.6243  163.3305 C.ar    1  UNL1        0.0002
     15 C         140.3596  137.6918  162.5005 C.ar    1  UNL1        0.0031
     16 C         141.6639  138.0714  163.1365 C.ar    1  UNL1        0.0375
     17 C         140.2213  141.2511  168.3662 C.3     1  UNL1        0.0926
     18 C         139.3213  140.0748  168.6036 C.3     1  UNL1        0.0383
     19 C         138.6603  140.2587  169.9375 C.3     1  UNL1        0.0704
     20 N         139.1518  141.5486  170.5245 N.3     1  UNL1       -0.2960
     21 C         140.1165  142.1619  169.5533 C.3     1  UNL1        0.0887
     22 H         139.6214  141.3684  171.4118 H       1  UNL1        0.1233
     23 C         140.5025  142.1615  165.9491 C.3     1  UNL1        0.0756
     24 C         140.1369  143.5752  165.6059 C.3     1  UNL1        0.0199
     25 C         139.6916  143.1296  164.2446 C.3     1  UNL1        0.0034
     26 C         140.0571  141.7159  164.5878 C.3     1  UNL1        0.0199
@<TRIPOS>BOND
     1     1     2    2
     2     2     4    1
     3     4     5   ar
     4     5     6   ar
     5     6     7   ar
     6     7     8   ar
     7     8     9   ar
     8     9    10    1
     9    10    11    1
    10    11    12   ar
    11    12    13   ar
    12    13    14   ar
    13    14    15   ar
    14    15    16   ar
    15     2     3   am
    16     3    23    1
    17    23    24    1
    18    24    25    1
    19    25    26    1
    20    17     3    1
    21    17    18    1
    22    18    19    1
    23    19    20    1
    24    20    21    1
    25     9     4   ar
    26    16    11   ar
    27    26    23    1
    28    21    17    1
    29    20    22    1
@<TRIPOS>MOLECULE
*****
 26 29 0 0 0
SMALL
GASTEIGER

@<TRIPOS>ATOM
      1 O         143.1387  142.0851  167.4663 O.2     1  UNL1       -0.2698
      2 C         142.0323  141.2846  166.8458 C.2     1  UNL1        0.2519
      3 N         140.6855  141.2306  167.5038 N.am    1  UNL1       -0.2778
      4 C         142.2728  140.5381  165.5671 C.ar    1  UNL1        0.0880
      5 C         142.5515  139.0646  165.6000 C.ar    1  UNL1        0.0076
      6 C         142.7919  138.3181  164.3214 C.ar    1  UNL1        0.0003
      7 C         142.7538  139.0451  163.0099 C.ar    1  UNL1        0.0031
      8 C         142.4751  140.5186  162.9770 C.ar    1  UNL1        0.0376
      9 C         142.2347  141.2651  164.2556 C.ar    1  UNL1        0.1496
     10 O         141.9560  142.7387  164.2228 O.3     1  UNL1       -0.4533
     11 C         140.5456  143.2325  164.0922 C.ar    1  UNL1        0.1453
     12 C         139.9236  144.0274  165.2018 C.ar    1  UNL1        0.0375
     13 C         138.5132  144.5213  165.0712 C.ar    1  UNL1        0.0031
     14 C         137.7250  144.2201  163.8310 C.ar    1  UNL1        0.0002
     15 C         138.3470  143.4252  162.7215 C.ar    1  UNL1        0.0031
     16 C         139.7574  142.9314  162.8521 C.ar    1  UNL1        0.0375
     17 C         140.4449  141.9771  168.7824 C.3     1  UNL1        0.0926
     18 C         140.3527  143.4670  168.9295 C.3     1  UNL1        0.0383
     19 C         140.1052  143.7755  170.3764 C.3     1  UNL1        0.0704
     20 N         140.0444  142.4762  171.1236 N.3     1  UNL1       -0.2960
     21 C         140.2544  141.3648  170.1384 C.3     1  UNL1        0.0887
     22 H         139.1327  142.3757  171.5697 H       1  UNL1        0.1233
     23 C         139.5791  140.4300  166.8832 C.3     1  UNL1        0.0756
     24 C         138.8029  140.5084  165.6020 C.3     1  UNL1        0.0199
     25 C         138.0145  139.2978  166.0056 C.3     1  UNL1        0.0034
     26 C         138.7907  139.2194  167.2868 C.3     1  UNL1        0.0199
@<TRIPOS>BOND
     1     1     2    2
     2     2     4    1
     3     4     5   ar
     4     5     6   ar
     5     6     7   ar
     6     7     8   ar
     7     8     9   ar
     8     9    10    1
     9    10    11    1
    10    11    12   ar
    11    12    13   ar
    12    13    14   ar
    13    14    15   ar
    14    15    16   ar
    15     2     3   am
    16     3    23    1
    17    23    24    1
    18    24    25    1
    19    25    26    1
    20    17     3    1
    21    17    18    1
    22    18    19    1
    23    19    20    1
    24    20    21    1
    25     9     4   ar
    26    16    11   ar
    27    26    23    1
    28    21    17    1
    29    20    22    1
@<TRIPOS>MOLECULE
*****
 26 29 0 0 0
SMALL
GASTEIGER

@<TRIPOS>ATOM
      1 O         141.4462  140.6440  162.6503 O.2     1  UNL1       -0.2698
      2 C         140.4704  141.3646  163.5326 C.2     1  UNL1        0.2519
      3 N         140.1298  142.7996  163.2591 N.am    1  UNL1       -0.2778
      4 C         139.8350  140.6502  164.6885 C.ar    1  UNL1        0.0880
      5 C         138.6906  139.7099  164.4516 C.ar    1  UNL1        0.0076
      6 C         138.0553  138.9955  165.6074 C.ar    1  UNL1        0.0003
      7 C         138.5644  139.2215  167.0002 C.ar    1  UNL1        0.0031
      8 C         139.7088  140.1618  167.2371 C.ar    1  UNL1        0.0376
      9 C         140.3441  140.8761  166.0813 C.ar    1  UNL1        0.1496
     10 O         141.4886  141.8165  166.3181 O.3     1  UNL1       -0.4533
     11 C         141.8127  142.2673  167.7116 C.ar    1  UNL1        0.1453
     12 C         143.1554  141.9604  168.3058 C.ar    1  UNL1        0.0375
     13 C         143.4796  142.4112  169.6993 C.ar    1  UNL1        0.0031
     14 C         142.4611  143.1689  170.4985 C.ar    1  UNL1        0.0002
     15 C         141.1185  143.4758  169.9042 C.ar    1  UNL1        0.0031
     16 C         140.7943  143.0250  168.5107 C.ar    1  UNL1        0.0375
     17 C         140.7651  143.5140  162.1033 C.3     1  UNL1        0.0926
     18 C         140.2922  143.4832  160.6801 C.3     1  UNL1        0.0383
     19 C         141.2197  144.3349  159.8649 C.3     1  UNL1        0.0704
     20 N         142.2659  144.8920  160.7843 N.3     1  UNL1       -0.2960
     21 C         141.9849  144.3847  162.1677 C.3     1  UNL1        0.0887
     22 H         142.2276  145.9112  160.7750 H       1  UNL1        0.1233
     23 C         139.1539  143.5202  164.1414 C.3     1  UNL1        0.0756
     24 C         137.6607  143.5326  164.2830 C.3     1  UNL1        0.0199
     25 C         137.7739  144.5392  165.3893 C.3     1  UNL1        0.0034
     26 C         139.2672  144.5268  165.2477 C.3     1  UNL1        0.0199
@<TRIPOS>BOND
     1     1     2    2
     2     2     4    1
     3     4     5   ar
     4     5     6   ar
     5     6     7   ar
     6     7     8   ar
     7     8     9   ar
     8     9    10    1
     9    10    11    1
    10    11    12   ar
    11    12    13   ar
    12    13    14   ar
    13    14    15   ar
    14    15    16   ar
    15     2     3   am
    16     3    23    1
    17    23    24    1
    18    24    25    1
    19    25    26    1
    20    17     3    1
    21    17    18    1
    22    18    19    1
    23    19    20    1
    24    20    21    1
    25     9     4   ar
    26    16    11   ar
    27    26    23    1
    28    21    17    1
    29    20    22    1
@<TRIPOS>MOLECULE
*****
 26 29 0 0 0
SMALL
GASTEIGER

@<TRIPOS>ATOM
      1 O         139.5367  142.8970  163.9818 O.2     1  UNL1       -0.2698
      2 C         140.3817  141.6986  164.2973 C.2     1  UNL1        0.2519
      3 N         141.8718  141.7691  164.1401 N.am    1  UNL1       -0.2778
      4 C         139.7367  140.4295  164.7700 C.ar    1  UNL1        0.0880
      5 C         139.4550  139.3236  163.7966 C.ar    1  UNL1        0.0076
      6 C         138.8099  138.0546  164.2694 C.ar    1  UNL1        0.0003
      7 C         138.4466  137.8915  165.7155 C.ar    1  UNL1        0.0031
      8 C         138.7284  138.9974  166.6890 C.ar    1  UNL1        0.0376
      9 C         139.3734  140.2664  166.2162 C.ar    1  UNL1        0.1496
     10 O         139.6552  141.3723  167.1897 O.3     1  UNL1       -0.4533
     11 C         140.8670  141.3050  168.0711 C.ar    1  UNL1        0.1453
     12 C         141.8985  142.3926  168.0123 C.ar    1  UNL1        0.0375
     13 C         143.1104  142.3253  168.8937 C.ar    1  UNL1        0.0031
     14 C         143.2908  141.1704  169.8339 C.ar    1  UNL1        0.0002
     15 C         142.2593  140.0829  169.8926 C.ar    1  UNL1        0.0031
     16 C         141.0475  140.1502  169.0112 C.ar    1  UNL1        0.0375
     17 C         142.5169  143.0381  163.6674 C.3     1  UNL1        0.0926
     18 C         143.3527  143.9652  164.4992 C.3     1  UNL1        0.0383
     19 C         143.7918  145.1029  163.6258 C.3     1  UNL1        0.0704
     20 N         143.2273  144.8790  162.2542 N.3     1  UNL1       -0.2960
     21 C         142.4394  143.6029  162.2800 C.3     1  UNL1        0.0887
     22 H         143.9854  144.8041  161.5759 H       1  UNL1        0.1233
     23 C         142.7168  140.5706  164.4557 C.3     1  UNL1        0.0756
     24 C         143.3764  139.4946  163.6450 C.3     1  UNL1        0.0199
     25 C         143.9118  138.8756  164.9020 C.3     1  UNL1        0.0034
     26 C         143.2523  139.9516  165.7128 C.3     1  UNL1        0.0199
@<TRIPOS>BOND
     1     1     2    2
     2     2     4    1
     3     4     5   ar
     4     5     6   ar
     5     6     7   ar
     6     7     8   ar
     7     8     9   ar
     8     9    10    1
     9    10    11    1
    10    11    12   ar
    11    12    13   ar
    12    13    14   ar
    13    14    15   ar
    14    15    16   ar
    15     2     3   am
    16     3    23    1
    17    23    24    1
    18    24    25    1
    19    25    26    1
    20    17     3    1
    21    17    18    1
    22    18    19    1
    23    19    20    1
    24    20    21    1
    25     9     4   ar
    26    16    11   ar
    27    26    23    1
    28    21    17    1
    29    20    22    1
@<TRIPOS>MOLECULE
*****
 26 29 0 0 0
SMALL
GASTEIGER

@<TRIPOS>ATOM
      1 O         138.7539  141.5980  161.9474 O.2     1  UNL1       -0.2698
      2 C         139.3954  141.4817  163.2982 C.2     1  UNL1        0.2519
      3 N         140.2060  142.6198  163.8440 N.am    1  UNL1       -0.2778
      4 C         139.2264  140.2274  164.1033 C.ar    1  UNL1        0.0880
      5 C         138.1867  140.1633  165.1826 C.ar    1  UNL1        0.0076
      6 C         138.0178  138.9090  165.9877 C.ar    1  UNL1        0.0003
      7 C         138.8885  137.7188  165.7134 C.ar    1  UNL1        0.0031
      8 C         139.9282  137.7829  164.6341 C.ar    1  UNL1        0.0376
      9 C         140.0971  139.0372  163.8291 C.ar    1  UNL1        0.1496
     10 O         141.1368  139.1013  162.7497 O.3     1  UNL1       -0.4533
     11 C         142.5126  139.6104  163.0629 C.ar    1  UNL1        0.1453
     12 C         143.3392  138.9373  164.1182 C.ar    1  UNL1        0.0375
     13 C         144.7150  139.4464  164.4314 C.ar    1  UNL1        0.0031
     14 C         145.2641  140.6287  163.6893 C.ar    1  UNL1        0.0002
     15 C         144.4375  141.3017  162.6340 C.ar    1  UNL1        0.0031
     16 C         143.0618  140.7926  162.3208 C.ar    1  UNL1        0.0375
     17 C         140.3750  143.8740  163.0390 C.3     1  UNL1        0.0926
     18 C         139.4019  145.0133  162.9670 C.3     1  UNL1        0.0383
     19 C         139.9723  146.0527  162.0481 C.3     1  UNL1        0.0704
     20 N         141.2979  145.5558  161.5521 N.3     1  UNL1       -0.2960
     21 C         141.5467  144.2093  162.1645 C.3     1  UNL1        0.0887
     22 H         142.0358  146.2035  161.8285 H       1  UNL1        0.1233
     23 C         140.8475  142.5034  165.1950 C.3     1  UNL1        0.0756
     24 C         140.3938  142.7256  166.6073 C.3     1  UNL1        0.0199
     25 C         141.7548  142.3389  167.1054 C.3     1  UNL1        0.0034
     26 C         142.2085  142.1167  165.6930 C.3     1  UNL1        0.0199
@<TRIPOS>BOND
     1     1     2    2
     2     2     4    1
     3     4     5   ar
     4     5     6   ar
     5     6     7   ar
     6     7     8   ar
     7     8     9   ar
     8     9    10    1
     9    10    11    1
    10    11    12   ar
    11    12    13   ar
    12    13    14   ar
    13    14    15   ar
    14    15    16   ar
    15     2     3   am
    16     3    23    1
    17    23    24    1
    18    24    25    1
    19    25    26    1
    20    17     3    1
    21    17    18    1
    22    18    19    1
    23    19    20    1
    24    20    21    1
    25     9     4   ar
    26    16    11   ar
    27    26    23    1
    28    21    17    1
    29    20    22    1
@<TRIPOS>MOLECULE
*****
 26 29 0 0 0
SMALL
GASTEIGER

@<TRIPOS>ATOM
      1 O         140.3283  143.0963  167.6579 O.2     1  UNL1       -0.2698
      2 C         139.9244  142.0158  166.6991 C.2     1  UNL1        0.2519
      3 N         139.8431  140.5921  167.1645 N.am    1  UNL1       -0.2778
      4 C         139.6019  142.3589  165.2749 C.ar    1  UNL1        0.0880
      5 C         138.2286  142.0950  164.7324 C.ar    1  UNL1        0.0076
      6 C         137.9061  142.4381  163.3083 C.ar    1  UNL1        0.0003
      7 C         138.9569  143.0451  162.4266 C.ar    1  UNL1        0.0031
      8 C         140.3302  143.3090  162.9691 C.ar    1  UNL1        0.0376
      9 C         140.6527  142.9659  164.3933 C.ar    1  UNL1        0.1496
     10 O         142.0260  143.2298  164.9358 O.3     1  UNL1       -0.4533
     11 C         143.1456  142.2767  164.6391 C.ar    1  UNL1        0.1453
     12 C         143.0325  140.8371  165.0453 C.ar    1  UNL1        0.0375
     13 C         144.1521  139.8839  164.7485 C.ar    1  UNL1        0.0031
     14 C         145.3847  140.3703  164.0456 C.ar    1  UNL1        0.0002
     15 C         145.4978  141.8098  163.6394 C.ar    1  UNL1        0.0031
     16 C         144.3782  142.7630  163.9362 C.ar    1  UNL1        0.0375
     17 C         140.1656  140.2490  168.5886 C.3     1  UNL1        0.0926
     18 C         141.5120  139.8508  169.1163 C.3     1  UNL1        0.0383
     19 C         141.3769  139.5995  170.5889 C.3     1  UNL1        0.0704
     20 N         139.9469  139.8423  170.9714 N.3     1  UNL1       -0.2960
     21 C         139.1983  140.2437  169.7351 C.3     1  UNL1        0.0887
     22 H         139.8960  140.5888  171.6646 H       1  UNL1        0.1233
     23 C         139.4392  139.5115  166.2056 C.3     1  UNL1        0.0756
     24 C         138.2126  138.6704  166.0108 C.3     1  UNL1        0.0199
     25 C         138.8681  137.9835  164.8496 C.3     1  UNL1        0.0034
     26 C         140.0947  138.8246  165.0444 C.3     1  UNL1        0.0199
@<TRIPOS>BOND
     1     1     2    2
     2     2     4    1
     3     4     5   ar
     4     5     6   ar
     5     6     7   ar
     6     7     8   ar
     7     8     9   ar
     8     9    10    1
     9    10    11    1
    10    11    12   ar
    11    12    13   ar
    12    13    14   ar
    13    14    15   ar
    14    15    16   ar
    15     2     3   am
    16     3    23    1
    17    23    24    1
    18    24    25    1
    19    25    26    1
    20    17     3    1
    21    17    18    1
    22    18    19    1
    23    19    20    1
    24    20    21    1
    25     9     4   ar
    26    16    11   ar
    27    26    23    1
    28    21    17    1
    29    20    22    1
