@<TRIPOS>MOLECULE
*****
 39 43 0 0 0
SMALL
GASTEIGER

@<TRIPOS>ATOM
      1 N         140.0224  140.7542  162.7383 N.pl3   1  UNL1       -0.1971
      2 C         139.9347  141.0157  164.2127 C.3     1  UNL1        0.1971
      3 C         139.3091  139.9974  165.1192 C.ar    1  UNL1        0.0522
      4 C         139.2214  140.2589  166.5936 C.ar    1  UNL1        0.0393
      5 C         138.5959  139.2405  167.4999 C.ar    1  UNL1        0.1453
      6 C         138.0580  137.9606  166.9320 C.ar    1  UNL1        0.0405
      7 C         138.1458  137.6991  165.4576 C.ar    1  UNL1        0.0400
      8 C         138.7713  138.7175  164.5512 C.ar    1  UNL1        0.1576
      9 N         138.8591  138.4560  163.0767 N.2     1  UNL1       -0.0758
     10 C         139.4846  139.4743  162.1703 C.cat   1  UNL1        0.3716
     11 N         139.5724  139.2128  160.6958 N.pl3   1  UNL1       -0.2512
     12 H         139.2194  138.3728  160.3230 H       1  UNL1        0.2412
     13 H         139.9829  139.8812  160.1009 H       1  UNL1        0.2412
     14 C         140.6480  141.7726  161.8318 C.3     1  UNL1        0.1343
     15 C         142.1381  141.8133  161.6648 C.3     1  UNL1        0.0342
     16 C         142.9997  140.8090  162.3712 C.3     1  UNL1        0.0031
     17 C         144.4898  140.8497  162.2041 C.3     1  UNL1        0.0001
     18 C         145.1184  141.8947  161.3307 C.3     1  UNL1        0.0000
     19 C         144.2567  142.8991  160.6243 C.3     1  UNL1        0.0001
     20 C         142.7666  142.8583  160.7914 C.3     1  UNL1        0.0031
     21 C         139.7834  142.7502  161.0924 C.3     1  UNL1        0.0468
     22 C         139.6712  144.1662  161.5744 C.3     1  UNL1        0.0885
     23 C         138.8237  144.9269  165.3761 C.3     1  UNL1        0.1148
     24 N         139.6026  144.6176  164.1320 N.am    1  UNL1       -0.2794
     25 C         138.8924  144.4755  162.8185 C.2     1  UNL1        0.2257
     26 O         137.4034  144.6428  162.7491 O.2     1  UNL1       -0.2749
     27 C         141.0916  144.4503  164.2015 C.3     1  UNL1        0.0754
     28 C         141.9880  145.3954  163.4577 C.3     1  UNL1        0.0198
     29 C         143.4770  145.2282  163.5272 C.3     1  UNL1        0.0017
     30 C         144.0696  144.1159  164.3405 C.3     1  UNL1        0.0001
     31 C         143.1733  143.1708  165.0843 C.3     1  UNL1        0.0017
     32 C         141.6843  143.3380  165.0148 C.3     1  UNL1        0.0198
     33 O         138.5081  139.5020  168.9744 O.3     1  UNL1       -0.4535
     34 C         139.5827  140.2916  169.6613 C.ar    1  UNL1        0.1453
     35 C         139.3156  141.7026  170.0950 C.ar    1  UNL1        0.0375
     36 C         140.3902  142.4922  170.7819 C.ar    1  UNL1        0.0031
     37 C         141.7318  141.8709  171.0351 C.ar    1  UNL1        0.0002
     38 C         141.9988  140.4600  170.6014 C.ar    1  UNL1        0.0031
     39 C         140.9243  139.6704  169.9145 C.ar    1  UNL1        0.0375
@<TRIPOS>BOND
     1    23    24    1
     2    24    25   am
     3    25    26    2
     4    25    22    1
     5    22    21    1
     6    14    21    1
     7    14    15    1
     8    15    16    1
     9    16    17    1
    10    17    18    1
    11    18    19    1
    12    19    20    1
    13    14     1    1
    14     1     2    1
    15     2     3    1
    16     3     4   ar
    17     4     5   ar
    18     5    33    1
    19    33    34    1
    20    34    35   ar
    21    35    36   ar
    22    36    37   ar
    23    37    38   ar
    24    38    39   ar
    25     5     6   ar
    26     6     7   ar
    27     7     8   ar
    28     8     9    1
    29     9    10    2
    30    10    11    1
    31    24    27    1
    32    27    28    1
    33    28    29    1
    34    29    30    1
    35    30    31    1
    36    31    32    1
    37    20    15    1
    38    10     1    1
    39    32    27    1
    40     8     3   ar
    41    39    34   ar
    42    11    12    1
    43    11    13    1
@<TRIPOS>MOLECULE
*****
 39 43 0 0 0
SMALL
GASTEIGER

@<TRIPOS>ATOM
      1 N         140.1980  139.7725  160.9252 N.pl3   1  UNL1       -0.1971
      2 C         141.3981  139.0492  160.3898 C.3     1  UNL1        0.1971
      3 C         141.3353  138.3834  159.0471 C.ar    1  UNL1        0.0522
      4 C         142.5353  137.6601  158.5117 C.ar    1  UNL1        0.0393
      5 C         142.4724  136.9943  157.1691 C.ar    1  UNL1        0.1453
      6 C         141.2095  137.0518  156.3618 C.ar    1  UNL1        0.0405
      7 C         140.0095  137.7751  156.8972 C.ar    1  UNL1        0.0400
      8 C         140.0723  138.4409  158.2398 C.ar    1  UNL1        0.1576
      9 N         138.8722  139.1642  158.7753 N.2     1  UNL1       -0.0758
     10 C         138.9351  139.8300  160.1179 C.cat   1  UNL1        0.3716
     11 N         137.7350  140.5533  160.6533 N.pl3   1  UNL1       -0.2512
     12 H         136.9061  140.5911  160.1235 H       1  UNL1        0.2412
     13 H         137.7763  140.9903  161.5346 H       1  UNL1        0.2412
     14 C         140.2609  140.4383  162.2679 C.3     1  UNL1        0.1343
     15 C         139.6920  139.7506  163.4734 C.3     1  UNL1        0.0342
     16 C         138.8086  140.5066  164.4211 C.3     1  UNL1        0.0031
     17 C         138.2398  139.8189  165.6266 C.3     1  UNL1        0.0001
     18 C         138.5543  138.3751  165.8846 C.3     1  UNL1        0.0000
     19 C         139.4377  137.6190  164.9369 C.3     1  UNL1        0.0001
     20 C         140.0065  138.3068  163.7313 C.3     1  UNL1        0.0031
     21 C         140.8926  141.7919  162.4050 C.3     1  UNL1        0.0468
     22 C         142.3593  141.9651  162.1428 C.3     1  UNL1        0.0885
     23 C         144.3965  143.8054  165.0086 C.3     1  UNL1        0.1148
     24 N         143.6221  142.7527  164.2723 N.am    1  UNL1       -0.2794
     25 C         143.1336  143.0178  162.8791 C.2     1  UNL1        0.2257
     26 O         143.4195  144.3356  162.2222 O.2     1  UNL1       -0.2749
     27 C         143.3362  141.4348  164.9293 C.3     1  UNL1        0.0754
     28 C         142.1967  141.3107  165.8967 C.3     1  UNL1        0.0198
     29 C         141.9108  139.9929  166.5537 C.3     1  UNL1        0.0017
     30 C         142.7644  138.7993  166.2432 C.3     1  UNL1        0.0001
     31 C         143.9039  138.9234  165.2757 C.3     1  UNL1        0.0017
     32 C         144.1898  140.2412  164.6187 C.3     1  UNL1        0.0198
     33 O         143.6726  136.2710  156.6336 O.3     1  UNL1       -0.4535
     34 C         143.5961  134.8005  156.3478 C.ar    1  UNL1        0.1453
     35 C         143.9862  133.8097  157.4044 C.ar    1  UNL1        0.0375
     36 C         143.9097  132.3392  157.1185 C.ar    1  UNL1        0.0031
     37 C         143.4432  131.8594  155.7760 C.ar    1  UNL1        0.0002
     38 C         143.0531  132.8502  154.7195 C.ar    1  UNL1        0.0031
     39 C         143.1296  134.3207  155.0053 C.ar    1  UNL1        0.0375
@<TRIPOS>BOND
     1    23    24    1
     2    24    25   am
     3    25    26    2
     4    25    22    1
     5    22    21    1
     6    14    21    1
     7    14    15    1
     8    15    16    1
     9    16    17    1
    10    17    18    1
    11    18    19    1
    12    19    20    1
    13    14     1    1
    14     1     2    1
    15     2     3    1
    16     3     4   ar
    17     4     5   ar
    18     5    33    1
    19    33    34    1
    20    34    35   ar
    21    35    36   ar
    22    36    37   ar
    23    37    38   ar
    24    38    39   ar
    25     5     6   ar
    26     6     7   ar
    27     7     8   ar
    28     8     9    1
    29     9    10    2
    30    10    11    1
    31    24    27    1
    32    27    28    1
    33    28    29    1
    34    29    30    1
    35    30    31    1
    36    31    32    1
    37    20    15    1
    38    10     1    1
    39    32    27    1
    40     8     3   ar
    41    39    34   ar
    42    11    12    1
    43    11    13    1
@<TRIPOS>MOLECULE
*****
 39 43 0 0 0
SMALL
GASTEIGER

@<TRIPOS>ATOM
      1 N         143.3237  140.3891  158.9687 N.pl3   1  UNL1       -0.1971
      2 C         142.7222  139.0220  158.8300 C.3     1  UNL1        0.1971
      3 C         143.0369  138.1826  157.6273 C.ar    1  UNL1        0.0522
      4 C         142.4354  136.8156  157.4886 C.ar    1  UNL1        0.0393
      5 C         142.7502  135.9762  156.2859 C.ar    1  UNL1        0.1453
      6 C         143.6664  136.5039  155.2220 C.ar    1  UNL1        0.0405
      7 C         144.2679  137.8710  155.3607 C.ar    1  UNL1        0.0400
      8 C         143.9532  138.7103  156.5633 C.ar    1  UNL1        0.1576
      9 N         144.5547  140.0775  156.7021 N.2     1  UNL1       -0.0758
     10 C         144.2400  140.9168  157.9047 C.cat   1  UNL1        0.3716
     11 N         144.8415  142.2839  158.0435 N.pl3   1  UNL1       -0.2512
     12 H         145.4429  142.6303  157.3452 H       1  UNL1        0.2412
     13 H         144.6350  142.8348  158.8328 H       1  UNL1        0.2412
     14 C         143.0090  141.2285  160.1714 C.3     1  UNL1        0.1343
     15 C         143.7861  141.0415  161.4406 C.3     1  UNL1        0.0342
     16 C         144.9266  141.9606  161.7641 C.3     1  UNL1        0.0031
     17 C         145.7036  141.7736  163.0334 C.3     1  UNL1        0.0001
     18 C         145.3402  140.6675  163.9793 C.3     1  UNL1        0.0000
     19 C         144.1998  139.7484  163.6558 C.3     1  UNL1        0.0001
     20 C         143.4227  139.9355  162.3864 C.3     1  UNL1        0.0031
     21 C         141.9172  142.2549  160.1047 C.3     1  UNL1        0.0468
     22 C         142.2620  143.7115  160.0079 C.3     1  UNL1        0.0885
     23 C         139.8783  146.1934  161.9849 C.3     1  UNL1        0.1148
     24 N         140.9235  145.1549  161.7035 N.am    1  UNL1       -0.2794
     25 C         141.2168  144.7500  160.2893 C.2     1  UNL1        0.2257
     26 O         140.4649  145.3835  159.1565 O.2     1  UNL1       -0.2749
     27 C         141.6754  144.5214  162.8364 C.3     1  UNL1        0.0754
     28 C         142.9895  145.0945  163.2777 C.3     1  UNL1        0.0198
     29 C         143.7415  144.4610  164.4105 C.3     1  UNL1        0.0017
     30 C         143.1793  143.2545  165.1020 C.3     1  UNL1        0.0001
     31 C         141.8652  142.6814  164.6607 C.3     1  UNL1        0.0017
     32 C         141.1133  143.3149  163.5279 C.3     1  UNL1        0.0198
     33 O         142.1486  134.6091  156.1472 O.3     1  UNL1       -0.4535
     34 C         142.9144  133.4029  156.6039 C.ar    1  UNL1        0.1453
     35 C         144.1472  133.5703  157.4421 C.ar    1  UNL1        0.0375
     36 C         144.9130  132.3641  157.8988 C.ar    1  UNL1        0.0031
     37 C         144.4460  130.9905  157.5174 C.ar    1  UNL1        0.0002
     38 C         143.2134  130.8232  156.6793 C.ar    1  UNL1        0.0031
     39 C         142.4476  132.0294  156.2226 C.ar    1  UNL1        0.0375
@<TRIPOS>BOND
     1    23    24    1
     2    24    25   am
     3    25    26    2
     4    25    22    1
     5    22    21    1
     6    14    21    1
     7    14    15    1
     8    15    16    1
     9    16    17    1
    10    17    18    1
    11    18    19    1
    12    19    20    1
    13    14     1    1
    14     1     2    1
    15     2     3    1
    16     3     4   ar
    17     4     5   ar
    18     5    33    1
    19    33    34    1
    20    34    35   ar
    21    35    36   ar
    22    36    37   ar
    23    37    38   ar
    24    38    39   ar
    25     5     6   ar
    26     6     7   ar
    27     7     8   ar
    28     8     9    1
    29     9    10    2
    30    10    11    1
    31    24    27    1
    32    27    28    1
    33    28    29    1
    34    29    30    1
    35    30    31    1
    36    31    32    1
    37    20    15    1
    38    10     1    1
    39    32    27    1
    40     8     3   ar
    41    39    34   ar
    42    11    12    1
    43    11    13    1
@<TRIPOS>MOLECULE
*****
 39 43 0 0 0
SMALL
GASTEIGER

@<TRIPOS>ATOM
      1 N         140.0469  140.6597  165.5608 N.pl3   1  UNL1       -0.1971
      2 C         140.3651  141.9076  164.7919 C.3     1  UNL1        0.1971
      3 C         139.6705  142.1851  163.4916 C.ar    1  UNL1        0.0522
      4 C         139.9887  143.4330  162.7226 C.ar    1  UNL1        0.0393
      5 C         139.2941  143.7104  161.4225 C.ar    1  UNL1        0.1453
      6 C         138.2813  142.7398  160.8912 C.ar    1  UNL1        0.0405
      7 C         137.9631  141.4919  161.6602 C.ar    1  UNL1        0.0400
      8 C         138.6577  141.2145  162.9604 C.ar    1  UNL1        0.1576
      9 N         138.3395  139.9665  163.7294 N.2     1  UNL1       -0.0758
     10 C         139.0341  139.6891  165.0296 C.cat   1  UNL1        0.3716
     11 N         138.7160  138.4411  165.7986 N.pl3   1  UNL1       -0.2512
     12 H         138.0512  137.8041  165.4499 H       1  UNL1        0.2412
     13 H         139.1719  138.2591  166.6520 H       1  UNL1        0.2412
     14 C         140.7416  140.3823  166.8611 C.3     1  UNL1        0.1343
     15 C         140.3929  141.1798  168.0827 C.3     1  UNL1        0.0342
     16 C         140.8906  142.5875  168.2266 C.3     1  UNL1        0.0031
     17 C         140.5420  143.3850  169.4482 C.3     1  UNL1        0.0001
     18 C         139.6957  142.7748  170.5260 C.3     1  UNL1        0.0000
     19 C         139.1980  141.3671  170.3821 C.3     1  UNL1        0.0001
     20 C         139.5467  140.5696  169.1604 C.3     1  UNL1        0.0031
     21 C         141.7848  139.3073  166.9396 C.3     1  UNL1        0.0468
     22 C         142.7442  139.1089  165.8039 C.3     1  UNL1        0.0885
     23 C         142.3055  137.9841  162.0233 C.3     1  UNL1        0.1148
     24 N         142.7220  138.7759  163.2273 N.am    1  UNL1       -0.2794
     25 C         142.3277  138.3171  164.5999 C.2     1  UNL1        0.2257
     26 O         141.5170  137.0664  164.7684 O.2     1  UNL1       -0.2749
     27 C         143.5328  140.0267  163.0587 C.3     1  UNL1        0.0754
     28 C         142.9835  141.1753  162.2655 C.3     1  UNL1        0.0198
     29 C         143.7942  142.4260  162.0969 C.3     1  UNL1        0.0017
     30 C         145.1542  142.5281  162.7214 C.3     1  UNL1        0.0001
     31 C         145.7034  141.3795  163.5146 C.3     1  UNL1        0.0017
     32 C         144.8927  140.1288  163.6832 C.3     1  UNL1        0.0198
     33 O         139.6123  144.9584  160.6534 O.3     1  UNL1       -0.4535
     34 C         140.5312  144.8960  159.4695 C.ar    1  UNL1        0.1453
     35 C         141.7075  143.9652  159.4813 C.ar    1  UNL1        0.0375
     36 C         142.6264  143.9028  158.2974 C.ar    1  UNL1        0.0031
     37 C         142.3691  144.7713  157.1017 C.ar    1  UNL1        0.0002
     38 C         141.1929  145.7020  157.0899 C.ar    1  UNL1        0.0031
     39 C         140.2740  145.7644  158.2739 C.ar    1  UNL1        0.0375
@<TRIPOS>BOND
     1    23    24    1
     2    24    25   am
     3    25    26    2
     4    25    22    1
     5    22    21    1
     6    14    21    1
     7    14    15    1
     8    15    16    1
     9    16    17    1
    10    17    18    1
    11    18    19    1
    12    19    20    1
    13    14     1    1
    14     1     2    1
    15     2     3    1
    16     3     4   ar
    17     4     5   ar
    18     5    33    1
    19    33    34    1
    20    34    35   ar
    21    35    36   ar
    22    36    37   ar
    23    37    38   ar
    24    38    39   ar
    25     5     6   ar
    26     6     7   ar
    27     7     8   ar
    28     8     9    1
    29     9    10    2
    30    10    11    1
    31    24    27    1
    32    27    28    1
    33    28    29    1
    34    29    30    1
    35    30    31    1
    36    31    32    1
    37    20    15    1
    38    10     1    1
    39    32    27    1
    40     8     3   ar
    41    39    34   ar
    42    11    12    1
    43    11    13    1
@<TRIPOS>MOLECULE
*****
 39 43 0 0 0
SMALL
GASTEIGER

@<TRIPOS>ATOM
      1 N         142.0762  143.1903  161.1371 N.pl3   1  UNL1       -0.1971
      2 C         142.3350  141.7183  161.0098 C.3     1  UNL1        0.1971
      3 C         142.4846  141.0977  159.6523 C.ar    1  UNL1        0.0522
      4 C         142.7434  139.6258  159.5249 C.ar    1  UNL1        0.0393
      5 C         142.8930  139.0053  158.1675 C.ar    1  UNL1        0.1453
      6 C         142.7839  139.8569  156.9375 C.ar    1  UNL1        0.0405
      7 C         142.5251  141.3288  157.0649 C.ar    1  UNL1        0.0400
      8 C         142.3755  141.9493  158.4223 C.ar    1  UNL1        0.1576
      9 N         142.1167  143.4213  158.5497 N.2     1  UNL1       -0.0758
     10 C         141.9670  144.0418  159.9071 C.cat   1  UNL1        0.3716
     11 N         141.7082  145.5138  160.0345 N.pl3   1  UNL1       -0.2512
     12 H         141.6366  146.0727  159.2272 H       1  UNL1        0.2412
     13 H         141.6100  145.9211  160.9255 H       1  UNL1        0.2412
     14 C         141.9266  143.8108  162.4946 C.3     1  UNL1        0.1343
     15 C         140.5695  143.9195  163.1241 C.3     1  UNL1        0.0342
     16 C         139.3762  143.3179  162.4427 C.3     1  UNL1        0.0031
     17 C         138.0191  143.4267  163.0721 C.3     1  UNL1        0.0001
     18 C         137.8551  144.1371  164.3831 C.3     1  UNL1        0.0000
     19 C         139.0483  144.7387  165.0645 C.3     1  UNL1        0.0001
     20 C         140.4055  144.6299  164.4349 C.3     1  UNL1        0.0031
     21 C         143.1342  144.3225  163.2225 C.3     1  UNL1        0.0468
     22 C         143.7051  143.5424  164.3694 C.3     1  UNL1        0.0885
     23 C         144.2468  139.6157  164.1746 C.3     1  UNL1        0.1148
     24 N         143.6007  140.9469  164.4208 N.am    1  UNL1       -0.2794
     25 C         144.3511  142.2112  164.1233 C.2     1  UNL1        0.2257
     26 O         145.7475  142.1443  163.5796 O.2     1  UNL1       -0.2749
     27 C         142.2043  141.0138  164.9645 C.3     1  UNL1        0.0754
     28 C         141.9471  141.6600  166.2935 C.3     1  UNL1        0.0198
     29 C         140.5507  141.7269  166.8372 C.3     1  UNL1        0.0017
     30 C         139.4116  141.1476  166.0519 C.3     1  UNL1        0.0001
     31 C         139.6688  140.5013  164.7229 C.3     1  UNL1        0.0017
     32 C         141.0652  140.4345  164.1792 C.3     1  UNL1        0.0198
     33 O         143.1518  137.5333  158.0401 O.3     1  UNL1       -0.4535
     34 C         142.6743  136.7900  156.8279 C.ar    1  UNL1        0.1453
     35 C         143.6531  136.0389  155.9747 C.ar    1  UNL1        0.0375
     36 C         143.1755  135.2956  154.7625 C.ar    1  UNL1        0.0031
     37 C         141.7191  135.3035  154.4034 C.ar    1  UNL1        0.0002
     38 C         140.7404  136.0546  155.2565 C.ar    1  UNL1        0.0031
     39 C         141.2180  136.7979  156.4687 C.ar    1  UNL1        0.0375
@<TRIPOS>BOND
     1    23    24    1
     2    24    25   am
     3    25    26    2
     4    25    22    1
     5    22    21    1
     6    14    21    1
     7    14    15    1
     8    15    16    1
     9    16    17    1
    10    17    18    1
    11    18    19    1
    12    19    20    1
    13    14     1    1
    14     1     2    1
    15     2     3    1
    16     3     4   ar
    17     4     5   ar
    18     5    33    1
    19    33    34    1
    20    34    35   ar
    21    35    36   ar
    22    36    37   ar
    23    37    38   ar
    24    38    39   ar
    25     5     6   ar
    26     6     7   ar
    27     7     8   ar
    28     8     9    1
    29     9    10    2
    30    10    11    1
    31    24    27    1
    32    27    28    1
    33    28    29    1
    34    29    30    1
    35    30    31    1
    36    31    32    1
    37    20    15    1
    38    10     1    1
    39    32    27    1
    40     8     3   ar
    41    39    34   ar
    42    11    12    1
    43    11    13    1
@<TRIPOS>MOLECULE
*****
 39 43 0 0 0
SMALL
GASTEIGER

@<TRIPOS>ATOM
      1 N         140.4897  143.3357  164.2039 N.pl3   1  UNL1       -0.1971
      2 C         141.4066  143.1013  163.0402 C.3     1  UNL1        0.1971
      3 C         141.2543  143.9153  161.7895 C.ar    1  UNL1        0.0522
      4 C         142.1712  143.6809  160.6258 C.ar    1  UNL1        0.0393
      5 C         142.0189  144.4949  159.3751 C.ar    1  UNL1        0.1453
      6 C         140.9496  145.5432  159.2881 C.ar    1  UNL1        0.0405
      7 C         140.0326  145.7776  160.4518 C.ar    1  UNL1        0.0400
      8 C         140.1850  144.9636  161.7025 C.ar    1  UNL1        0.1576
      9 N         139.2680  145.1980  162.8663 N.2     1  UNL1       -0.0758
     10 C         139.4203  144.3840  164.1169 C.cat   1  UNL1        0.3716
     11 N         138.5034  144.6184  165.2807 N.pl3   1  UNL1       -0.2512
     12 H         137.8015  145.3064  165.2236 H       1  UNL1        0.2412
     13 H         138.6034  144.0841  166.1016 H       1  UNL1        0.2412
     14 C         140.6420  142.5217  165.4546 C.3     1  UNL1        0.1343
     15 C         139.8414  141.2660  165.6344 C.3     1  UNL1        0.0342
     16 C         139.7620  140.6138  166.9829 C.3     1  UNL1        0.0031
     17 C         138.9614  139.3581  167.1626 C.3     1  UNL1        0.0001
     18 C         138.2403  138.7546  165.9939 C.3     1  UNL1        0.0000
     19 C         138.3198  139.4068  164.6455 C.3     1  UNL1        0.0001
     20 C         139.1204  140.6625  164.4657 C.3     1  UNL1        0.0031
     21 C         141.5949  142.9634  166.5256 C.3     1  UNL1        0.0468
     22 C         142.9309  142.2955  166.6628 C.3     1  UNL1        0.0885
     23 C         145.2810  141.7097  163.5189 C.3     1  UNL1        0.1148
     24 N         144.2215  141.4882  164.5575 N.am    1  UNL1       -0.2794
     25 C         143.9903  142.5170  165.6243 C.2     1  UNL1        0.2257
     26 O         144.8186  143.7672  165.6525 O.2     1  UNL1       -0.2749
     27 C         143.3932  140.2379  164.5292 C.3     1  UNL1        0.0754
     28 C         142.6378  139.8667  163.2876 C.3     1  UNL1        0.0198
     29 C         141.8095  138.6165  163.2592 C.3     1  UNL1        0.0017
     30 C         141.7367  137.7374  164.4724 C.3     1  UNL1        0.0001
     31 C         142.4922  138.1086  165.7140 C.3     1  UNL1        0.0017
     32 C         143.3205  139.3588  165.7424 C.3     1  UNL1        0.0198
     33 O         142.9359  144.2606  158.2113 O.3     1  UNL1       -0.4535
     34 C         143.2227  142.8616  157.7524 C.ar    1  UNL1        0.1453
     35 C         144.6311  142.3453  157.7549 C.ar    1  UNL1        0.0375
     36 C         144.9179  140.9464  157.2960 C.ar    1  UNL1        0.0031
     37 C         143.7964  140.0637  156.8344 C.ar    1  UNL1        0.0002
     38 C         142.3880  140.5800  156.8318 C.ar    1  UNL1        0.0031
     39 C         142.1012  141.9789  157.2908 C.ar    1  UNL1        0.0375
@<TRIPOS>BOND
     1    23    24    1
     2    24    25   am
     3    25    26    2
     4    25    22    1
     5    22    21    1
     6    14    21    1
     7    14    15    1
     8    15    16    1
     9    16    17    1
    10    17    18    1
    11    18    19    1
    12    19    20    1
    13    14     1    1
    14     1     2    1
    15     2     3    1
    16     3     4   ar
    17     4     5   ar
    18     5    33    1
    19    33    34    1
    20    34    35   ar
    21    35    36   ar
    22    36    37   ar
    23    37    38   ar
    24    38    39   ar
    25     5     6   ar
    26     6     7   ar
    27     7     8   ar
    28     8     9    1
    29     9    10    2
    30    10    11    1
    31    24    27    1
    32    27    28    1
    33    28    29    1
    34    29    30    1
    35    30    31    1
    36    31    32    1
    37    20    15    1
    38    10     1    1
    39    32    27    1
    40     8     3   ar
    41    39    34   ar
    42    11    12    1
    43    11    13    1
@<TRIPOS>MOLECULE
*****
 39 43 0 0 0
SMALL
GASTEIGER

@<TRIPOS>ATOM
      1 N         143.2600  140.5574  159.3151 N.pl3   1  UNL1       -0.1971
      2 C         144.0604  141.5718  158.5533 C.3     1  UNL1        0.1971
      3 C         144.5963  141.2364  157.1930 C.ar    1  UNL1        0.0522
      4 C         145.3967  142.2508  156.4312 C.ar    1  UNL1        0.0393
      5 C         145.9326  141.9154  155.0710 C.ar    1  UNL1        0.1453
      6 C         145.6682  140.5655  154.4726 C.ar    1  UNL1        0.0405
      7 C         144.8679  139.5512  155.2344 C.ar    1  UNL1        0.0400
      8 C         144.3319  139.8866  156.5946 C.ar    1  UNL1        0.1576
      9 N         143.5316  138.8722  157.3565 N.2     1  UNL1       -0.0758
     10 C         142.9956  139.2076  158.7167 C.cat   1  UNL1        0.3716
     11 N         142.1952  138.1932  159.4787 N.pl3   1  UNL1       -0.2512
     12 H         142.0217  137.3073  159.0859 H       1  UNL1        0.2412
     13 H         141.8435  138.4134  160.3714 H       1  UNL1        0.2412
     14 C         142.7241  140.8929  160.6754 C.3     1  UNL1        0.1343
     15 C         143.5457  140.6056  161.8970 C.3     1  UNL1        0.0342
     16 C         144.7733  141.4186  162.1834 C.3     1  UNL1        0.0031
     17 C         145.5950  141.1314  163.4050 C.3     1  UNL1        0.0001
     18 C         145.1890  140.0312  164.3403 C.3     1  UNL1        0.0000
     19 C         143.9613  139.2182  164.0540 C.3     1  UNL1        0.0001
     20 C         143.1397  139.5055  162.8323 C.3     1  UNL1        0.0031
     21 C         141.3664  141.5155  160.8140 C.3     1  UNL1        0.0468
     22 C         141.2324  143.0053  160.9258 C.3     1  UNL1        0.0885
     23 C         138.9941  144.7096  163.7249 C.3     1  UNL1        0.1148
     24 N         140.1806  144.1136  163.0270 N.am    1  UNL1       -0.2794
     25 C         140.0460  143.6013  161.6237 C.2     1  UNL1        0.2257
     26 O         138.7249  143.6850  160.9183 O.2     1  UNL1       -0.2749
     27 C         141.5017  144.0299  163.7325 C.3     1  UNL1        0.0754
     28 C         141.7818  142.8909  164.6675 C.3     1  UNL1        0.0198
     29 C         143.1029  142.8072  165.3730 C.3     1  UNL1        0.0017
     30 C         144.1439  143.8624  165.1435 C.3     1  UNL1        0.0001
     31 C         143.8638  145.0014  164.2085 C.3     1  UNL1        0.0017
     32 C         142.5427  145.0852  163.5030 C.3     1  UNL1        0.0198
     33 O         146.7330  142.9298  154.3090 O.3     1  UNL1       -0.4535
     34 C         148.2221  142.7841  154.2028 C.ar    1  UNL1        0.1453
     35 C         148.9574  141.8857  155.1527 C.ar    1  UNL1        0.0375
     36 C         150.4466  141.7400  155.0465 C.ar    1  UNL1        0.0031
     37 C         151.2003  142.4927  153.9904 C.ar    1  UNL1        0.0002
     38 C         150.4650  143.3910  153.0405 C.ar    1  UNL1        0.0031
     39 C         148.9759  143.5367  153.1467 C.ar    1  UNL1        0.0375
@<TRIPOS>BOND
     1    23    24    1
     2    24    25   am
     3    25    26    2
     4    25    22    1
     5    22    21    1
     6    14    21    1
     7    14    15    1
     8    15    16    1
     9    16    17    1
    10    17    18    1
    11    18    19    1
    12    19    20    1
    13    14     1    1
    14     1     2    1
    15     2     3    1
    16     3     4   ar
    17     4     5   ar
    18     5    33    1
    19    33    34    1
    20    34    35   ar
    21    35    36   ar
    22    36    37   ar
    23    37    38   ar
    24    38    39   ar
    25     5     6   ar
    26     6     7   ar
    27     7     8   ar
    28     8     9    1
    29     9    10    2
    30    10    11    1
    31    24    27    1
    32    27    28    1
    33    28    29    1
    34    29    30    1
    35    30    31    1
    36    31    32    1
    37    20    15    1
    38    10     1    1
    39    32    27    1
    40     8     3   ar
    41    39    34   ar
    42    11    12    1
    43    11    13    1
@<TRIPOS>MOLECULE
*****
 39 43 0 0 0
SMALL
GASTEIGER

@<TRIPOS>ATOM
      1 N         138.4720  141.2011  161.2402 N.pl3   1  UNL1       -0.1971
      2 C         139.2877  142.2956  160.6185 C.3     1  UNL1        0.1971
      3 C         139.4167  142.3799  159.1264 C.ar    1  UNL1        0.0522
      4 C         140.2324  143.4744  158.5047 C.ar    1  UNL1        0.0393
      5 C         140.3613  143.5586  157.0127 C.ar    1  UNL1        0.1453
      6 C         139.6745  142.5483  156.1423 C.ar    1  UNL1        0.0405
      7 C         138.8588  141.4538  156.7640 C.ar    1  UNL1        0.0400
      8 C         138.7299  141.3696  158.2560 C.ar    1  UNL1        0.1576
      9 N         137.9141  140.2750  158.8778 N.2     1  UNL1       -0.0758
     10 C         137.7852  140.1908  160.3698 C.cat   1  UNL1        0.3716
     11 N         136.9694  139.0962  160.9916 N.pl3   1  UNL1       -0.2512
     12 H         136.5186  138.4331  160.4204 H       1  UNL1        0.2412
     13 H         136.8848  139.0409  161.9709 H       1  UNL1        0.2412
     14 C         138.3430  141.1169  162.7323 C.3     1  UNL1        0.1343
     15 C         139.2070  140.1667  163.5073 C.3     1  UNL1        0.0342
     16 C         138.8350  139.7889  164.9105 C.3     1  UNL1        0.0031
     17 C         139.6990  138.8388  165.6855 C.3     1  UNL1        0.0001
     18 C         140.9351  138.2664  165.0574 C.3     1  UNL1        0.0000
     19 C         141.3072  138.6443  163.6542 C.3     1  UNL1        0.0001
     20 C         140.4431  139.5945  162.8792 C.3     1  UNL1        0.0031
     21 C         137.3500  141.9828  163.4493 C.3     1  UNL1        0.0468
     22 C         137.8137  143.2056  164.1838 C.3     1  UNL1        0.0885
     23 C         141.0296  145.2844  163.1415 C.3     1  UNL1        0.1148
     24 N         140.1515  144.2830  163.8314 N.am    1  UNL1       -0.2794
     25 C         138.6919  144.2070  163.4939 C.2     1  UNL1        0.2257
     26 O         138.1106  145.1323  162.4664 O.2     1  UNL1       -0.2749
     27 C         140.7329  143.3577  164.8590 C.3     1  UNL1        0.0754
     28 C         141.9410  142.5329  164.5274 C.3     1  UNL1        0.0198
     29 C         142.5224  141.6076  165.5549 C.3     1  UNL1        0.0017
     30 C         141.8957  141.5071  166.9139 C.3     1  UNL1        0.0001
     31 C         140.6875  142.3319  167.2455 C.3     1  UNL1        0.0017
     32 C         140.1061  143.2572  166.2180 C.3     1  UNL1        0.0198
     33 O         141.1771  144.6532  156.3909 O.3     1  UNL1       -0.4535
     34 C         140.5088  145.9095  155.9165 C.ar    1  UNL1        0.1453
     35 C         139.5635  146.6436  156.8207 C.ar    1  UNL1        0.0375
     36 C         138.8952  147.8999  156.3462 C.ar    1  UNL1        0.0031
     37 C         139.1723  148.4222  154.9676 C.ar    1  UNL1        0.0002
     38 C         140.1176  147.6881  154.0635 C.ar    1  UNL1        0.0031
     39 C         140.7859  146.4318  154.5379 C.ar    1  UNL1        0.0375
@<TRIPOS>BOND
     1    23    24    1
     2    24    25   am
     3    25    26    2
     4    25    22    1
     5    22    21    1
     6    14    21    1
     7    14    15    1
     8    15    16    1
     9    16    17    1
    10    17    18    1
    11    18    19    1
    12    19    20    1
    13    14     1    1
    14     1     2    1
    15     2     3    1
    16     3     4   ar
    17     4     5   ar
    18     5    33    1
    19    33    34    1
    20    34    35   ar
    21    35    36   ar
    22    36    37   ar
    23    37    38   ar
    24    38    39   ar
    25     5     6   ar
    26     6     7   ar
    27     7     8   ar
    28     8     9    1
    29     9    10    2
    30    10    11    1
    31    24    27    1
    32    27    28    1
    33    28    29    1
    34    29    30    1
    35    30    31    1
    36    31    32    1
    37    20    15    1
    38    10     1    1
    39    32    27    1
    40     8     3   ar
    41    39    34   ar
    42    11    12    1
    43    11    13    1
@<TRIPOS>MOLECULE
*****
 39 43 0 0 0
SMALL
GASTEIGER

@<TRIPOS>ATOM
      1 N         139.9556  140.3140  161.8112 N.pl3   1  UNL1       -0.1971
      2 C         140.7713  140.3387  163.0698 C.3     1  UNL1        0.1971
      3 C         140.1367  139.9843  164.3819 C.ar    1  UNL1        0.0522
      4 C         140.9525  140.0090  165.6405 C.ar    1  UNL1        0.0393
      5 C         140.3179  139.6545  166.9526 C.ar    1  UNL1        0.1453
      6 C         138.8676  139.2754  167.0061 C.ar    1  UNL1        0.0405
      7 C         138.0519  139.2507  165.7476 C.ar    1  UNL1        0.0400
      8 C         138.6864  139.6051  164.4355 C.ar    1  UNL1        0.1576
      9 N         137.8707  139.5805  163.1769 N.2     1  UNL1       -0.0758
     10 C         138.5053  139.9349  161.8648 C.cat   1  UNL1        0.3716
     11 N         137.6896  139.9102  160.6061 N.pl3   1  UNL1       -0.2512
     12 H         136.7377  139.6614  160.6413 H       1  UNL1        0.2412
     13 H         138.1061  140.1428  159.7450 H       1  UNL1        0.2412
     14 C         140.5902  140.6685  160.4990 C.3     1  UNL1        0.1343
     15 C         141.2577  139.6058  159.6774 C.3     1  UNL1        0.0342
     16 C         140.9450  139.4810  158.2157 C.3     1  UNL1        0.0031
     17 C         141.6125  138.4183  157.3940 C.3     1  UNL1        0.0001
     18 C         142.5927  137.4804  158.0341 C.3     1  UNL1        0.0000
     19 C         142.9053  137.6052  159.4959 C.3     1  UNL1        0.0001
     20 C         142.2378  138.6680  160.3175 C.3     1  UNL1        0.0031
     21 C         140.5573  142.0857  160.0086 C.3     1  UNL1        0.0468
     22 C         141.2388  143.1670  160.7935 C.3     1  UNL1        0.0885
     23 C         139.5843  146.7050  161.4975 C.3     1  UNL1        0.1148
     24 N         140.0004  145.2746  161.6735 N.am    1  UNL1       -0.2794
     25 C         140.8227  144.5974  160.6175 C.2     1  UNL1        0.2257
     26 O         141.2289  145.3505  159.3856 O.2     1  UNL1       -0.2749
     27 C         139.5941  144.5215  162.9055 C.3     1  UNL1        0.0754
     28 C         140.5280  144.4397  164.0766 C.3     1  UNL1        0.0198
     29 C         140.1218  143.6866  165.3086 C.3     1  UNL1        0.0017
     30 C         138.7818  143.0154  165.3696 C.3     1  UNL1        0.0001
     31 C         137.8479  143.0972  164.1985 C.3     1  UNL1        0.0017
     32 C         138.2541  143.8503  162.9665 C.3     1  UNL1        0.0198
     33 O         141.1336  139.6792  168.2112 O.3     1  UNL1       -0.4535
     34 C         141.4452  140.9865  168.8774 C.ar    1  UNL1        0.1453
     35 C         140.3706  142.0204  169.0401 C.ar    1  UNL1        0.0375
     36 C         140.6822  143.3277  169.7063 C.ar    1  UNL1        0.0031
     37 C         142.0685  143.6012  170.2098 C.ar    1  UNL1        0.0002
     38 C         143.1431  142.5673  170.0471 C.ar    1  UNL1        0.0031
     39 C         142.8315  141.2600  169.3809 C.ar    1  UNL1        0.0375
@<TRIPOS>BOND
     1    23    24    1
     2    24    25   am
     3    25    26    2
     4    25    22    1
     5    22    21    1
     6    14    21    1
     7    14    15    1
     8    15    16    1
     9    16    17    1
    10    17    18    1
    11    18    19    1
    12    19    20    1
    13    14     1    1
    14     1     2    1
    15     2     3    1
    16     3     4   ar
    17     4     5   ar
    18     5    33    1
    19    33    34    1
    20    34    35   ar
    21    35    36   ar
    22    36    37   ar
    23    37    38   ar
    24    38    39   ar
    25     5     6   ar
    26     6     7   ar
    27     7     8   ar
    28     8     9    1
    29     9    10    2
    30    10    11    1
    31    24    27    1
    32    27    28    1
    33    28    29    1
    34    29    30    1
    35    30    31    1
    36    31    32    1
    37    20    15    1
    38    10     1    1
    39    32    27    1
    40     8     3   ar
    41    39    34   ar
    42    11    12    1
    43    11    13    1
