@<TRIPOS>MOLECULE
*****
 19 20 0 0 0
SMALL
GASTEIGER

@<TRIPOS>ATOM
      1 C         139.1424  139.9982  166.3505 C.3     1  UNL1        0.0638
      2 C         139.0582  141.2627  165.5478 C.ar    1  UNL1       -0.0168
      3 C         138.1039  141.3567  164.3944 C.ar    1  UNL1       -0.0030
      4 C         138.0198  142.6211  163.5919 C.ar    1  UNL1        0.0111
      5 C         138.8900  143.7914  163.9427 C.ar    1  UNL1        0.0577
      6 CL        138.8058  145.0559  163.1400 Cl      1  UNL1       -0.0822
      7 C         139.8443  143.6974  165.0961 C.ar    1  UNL1        0.0111
      8 C         139.9284  142.4330  165.8987 C.ar    1  UNL1       -0.0030
      9 C         140.1864  139.8557  167.4181 C.ar    1  UNL1        0.0627
     10 C         141.6229  139.6482  167.0393 C.ar    1  UNL1        0.0151
     11 C         142.6669  139.5057  168.1069 C.ar    1  UNL1        0.0028
     12 C         142.2745  139.5706  169.5532 C.ar    1  UNL1        0.0207
     13 C         140.8380  139.7780  169.9319 C.ar    1  UNL1        0.0985
     14 N         139.7939  139.9206  168.8644 N.ar    1  UNL1       -0.2478
     15 C         138.1826  138.8764  166.0856 C.3     1  UNL1        0.0276
     16 C         138.6790  137.5864  165.5029 C.3     1  UNL1        0.0729
     17 C         140.9453  137.2532  164.2770 C.3     1  UNL1        0.0897
     18 N         139.4855  137.5959  164.2382 N.3     1  UNL1       -0.2703
     19 C         138.8322  137.9481  162.9347 C.3     1  UNL1        0.0897
@<TRIPOS>BOND
     1    17    18    1
     2    18    19    1
     3    18    16    1
     4    16    15    1
     5    15     1    1
     6     1     2    1
     7     2     3   ar
     8     3     4   ar
     9     4     5   ar
    10     5     6    1
    11     5     7   ar
    12     7     8   ar
    13     1     9    1
    14     9    10   ar
    15    10    11   ar
    16    11    12   ar
    17    12    13   ar
    18    13    14   ar
    19     8     2   ar
    20    14     9   ar
@<TRIPOS>MOLECULE
*****
 19 20 0 0 0
SMALL
GASTEIGER

@<TRIPOS>ATOM
      1 C         139.0339  140.0628  166.1546 C.3     1  UNL1        0.0638
      2 C         140.0348  139.9807  167.2689 C.ar    1  UNL1       -0.0168
      3 C         139.5943  140.1794  168.6889 C.ar    1  UNL1       -0.0030
      4 C         140.5951  140.0972  169.8031 C.ar    1  UNL1        0.0111
      5 C         142.0365  139.8164  169.4973 C.ar    1  UNL1        0.0577
      6 CL        143.0374  139.7342  170.6115 Cl      1  UNL1       -0.0822
      7 C         142.4771  139.6177  168.0773 C.ar    1  UNL1        0.0111
      8 C         141.4762  139.6998  166.9631 C.ar    1  UNL1       -0.0030
      9 C         138.8762  141.3380  165.3806 C.ar    1  UNL1        0.0627
     10 C         139.6524  142.5581  165.7791 C.ar    1  UNL1        0.0151
     11 C         139.4947  143.8333  165.0051 C.ar    1  UNL1        0.0028
     12 C         138.5609  143.8883  163.8326 C.ar    1  UNL1        0.0207
     13 C         137.7847  142.6682  163.4340 C.ar    1  UNL1        0.0985
     14 N         137.9424  141.3930  164.2080 N.ar    1  UNL1       -0.2478
     15 C         138.1907  138.8698  165.8144 C.3     1  UNL1        0.0276
     16 C         138.8340  137.6247  165.2795 C.3     1  UNL1        0.0729
     17 C         140.9997  137.2770  163.8873 C.3     1  UNL1        0.0897
     18 N         139.5507  137.6573  163.9623 N.3     1  UNL1       -0.2703
     19 C         138.8185  138.0702  162.7200 C.3     1  UNL1        0.0897
@<TRIPOS>BOND
     1    17    18    1
     2    18    19    1
     3    18    16    1
     4    16    15    1
     5    15     1    1
     6     1     2    1
     7     2     3   ar
     8     3     4   ar
     9     4     5   ar
    10     5     6    1
    11     5     7   ar
    12     7     8   ar
    13     1     9    1
    14     9    10   ar
    15    10    11   ar
    16    11    12   ar
    17    12    13   ar
    18    13    14   ar
    19     8     2   ar
    20    14     9   ar
@<TRIPOS>MOLECULE
*****
 19 20 0 0 0
SMALL
GASTEIGER

@<TRIPOS>ATOM
      1 C         140.2482  142.1026  166.4159 C.3     1  UNL1        0.0638
      2 C         140.1417  143.1236  165.3221 C.ar    1  UNL1       -0.0168
      3 C         141.3829  143.6551  164.6688 C.ar    1  UNL1       -0.0030
      4 C         141.2764  144.6761  163.5752 C.ar    1  UNL1        0.0111
      5 C         139.9286  145.1656  163.1348 C.ar    1  UNL1        0.0577
      6 CL        139.8221  146.1866  162.0410 Cl      1  UNL1       -0.0822
      7 C         138.6874  144.6341  163.7881 C.ar    1  UNL1        0.0111
      8 C         138.7939  143.6131  164.8818 C.ar    1  UNL1       -0.0030
      9 C         141.0240  142.4154  167.6610 C.ar    1  UNL1        0.0627
     10 C         140.3799  143.1926  168.7706 C.ar    1  UNL1        0.0151
     11 C         141.1556  143.5055  170.0157 C.ar    1  UNL1        0.0028
     12 C         142.5755  143.0412  170.1512 C.ar    1  UNL1        0.0207
     13 C         143.2197  142.2640  169.0416 C.ar    1  UNL1        0.0985
     14 N         142.4439  141.9511  167.7965 N.ar    1  UNL1       -0.2478
     15 C         139.5790  140.7688  166.2645 C.3     1  UNL1        0.0276
     16 C         140.3292  139.6171  165.6637 C.3     1  UNL1        0.0729
     17 C         142.7737  139.8442  164.8139 C.3     1  UNL1        0.0897
     18 N         141.2983  139.8556  164.5440 N.3     1  UNL1       -0.2703
     19 C         140.7920  140.1056  163.1543 C.3     1  UNL1        0.0897
@<TRIPOS>BOND
     1    17    18    1
     2    18    19    1
     3    18    16    1
     4    16    15    1
     5    15     1    1
     6     1     2    1
     7     2     3   ar
     8     3     4   ar
     9     4     5   ar
    10     5     6    1
    11     5     7   ar
    12     7     8   ar
    13     1     9    1
    14     9    10   ar
    15    10    11   ar
    16    11    12   ar
    17    12    13   ar
    18    13    14   ar
    19     8     2   ar
    20    14     9   ar
@<TRIPOS>MOLECULE
*****
 19 20 0 0 0
SMALL
GASTEIGER

@<TRIPOS>ATOM
      1 C         140.3252  142.1136  166.3180 C.3     1  UNL1        0.0638
      2 C         140.2071  143.1511  165.2410 C.ar    1  UNL1       -0.0168
      3 C         141.4414  143.6951  164.5851 C.ar    1  UNL1       -0.0030
      4 C         141.3233  144.7324  163.5081 C.ar    1  UNL1        0.0111
      5 C         139.9707  145.2258  163.0872 C.ar    1  UNL1        0.0577
      6 CL        139.8526  146.2633  162.0102 Cl      1  UNL1       -0.0822
      7 C         138.7364  144.6818  163.7431 C.ar    1  UNL1        0.0111
      8 C         138.8545  143.6444  164.8200 C.ar    1  UNL1       -0.0030
      9 C         141.0541  142.4323  167.5897 C.ar    1  UNL1        0.0627
     10 C         142.4803  142.0020  167.7647 C.ar    1  UNL1        0.0151
     11 C         143.2092  142.3207  169.0364 C.ar    1  UNL1        0.0028
     12 C         142.5119  143.0698  170.1330 C.ar    1  UNL1        0.0207
     13 C         141.0856  143.5003  169.9580 C.ar    1  UNL1        0.0985
     14 N         140.3567  143.1815  168.6863 N.ar    1  UNL1       -0.2478
     15 C         139.7144  140.7575  166.1233 C.3     1  UNL1        0.0276
     16 C         140.0600  139.9465  164.9096 C.3     1  UNL1        0.0729
     17 C         138.7872  137.7023  165.2149 C.3     1  UNL1        0.0897
     18 N         139.0958  138.9195  164.3944 N.3     1  UNL1       -0.2703
     19 C         138.4401  139.1096  163.0588 C.3     1  UNL1        0.0897
@<TRIPOS>BOND
     1    17    18    1
     2    18    19    1
     3    18    16    1
     4    16    15    1
     5    15     1    1
     6     1     2    1
     7     2     3   ar
     8     3     4   ar
     9     4     5   ar
    10     5     6    1
    11     5     7   ar
    12     7     8   ar
    13     1     9    1
    14     9    10   ar
    15    10    11   ar
    16    11    12   ar
    17    12    13   ar
    18    13    14   ar
    19     8     2   ar
    20    14     9   ar
@<TRIPOS>MOLECULE
*****
 19 20 0 0 0
SMALL
GASTEIGER

@<TRIPOS>ATOM
      1 C         139.4624  140.8174  165.6098 C.3     1  UNL1        0.0638
      2 C         139.8116  141.0880  167.0433 C.ar    1  UNL1       -0.0168
      3 C         139.4469  140.0929  168.1048 C.ar    1  UNL1       -0.0030
      4 C         139.7961  140.3634  169.5382 C.ar    1  UNL1        0.0111
      5 C         140.5101  141.6291  169.9102 C.ar    1  UNL1        0.0577
      6 CL        140.8593  141.8996  171.3437 Cl      1  UNL1       -0.0822
      7 C         140.8748  142.6242  168.8487 C.ar    1  UNL1        0.0111
      8 C         140.5256  142.3536  167.4153 C.ar    1  UNL1       -0.0030
      9 C         139.9746  139.5803  164.9337 C.ar    1  UNL1        0.0627
     10 C         141.3381  139.0524  165.2687 C.ar    1  UNL1        0.0151
     11 C         141.8503  137.8152  164.5926 C.ar    1  UNL1        0.0028
     12 C         140.9990  137.1059  163.5816 C.ar    1  UNL1        0.0207
     13 C         139.6355  137.6338  163.2465 C.ar    1  UNL1        0.0985
     14 N         139.1233  138.8710  163.9226 N.ar    1  UNL1       -0.2478
     15 C         138.6010  141.7840  164.8524 C.3     1  UNL1        0.0276
     16 C         139.2188  142.7120  163.8487 C.3     1  UNL1        0.0729
     17 C         139.1583  145.0716  162.7632 C.3     1  UNL1        0.0897
     18 N         139.0126  144.1928  163.9700 N.3     1  UNL1       -0.2703
     19 C         138.6607  144.7948  165.2980 C.3     1  UNL1        0.0897
@<TRIPOS>BOND
     1    17    18    1
     2    18    19    1
     3    18    16    1
     4    16    15    1
     5    15     1    1
     6     1     2    1
     7     2     3   ar
     8     3     4   ar
     9     4     5   ar
    10     5     6    1
    11     5     7   ar
    12     7     8   ar
    13     1     9    1
    14     9    10   ar
    15    10    11   ar
    16    11    12   ar
    17    12    13   ar
    18    13    14   ar
    19     8     2   ar
    20    14     9   ar
@<TRIPOS>MOLECULE
*****
 19 20 0 0 0
SMALL
GASTEIGER

@<TRIPOS>ATOM
      1 C         142.5460  139.3409  165.6573 C.3     1  UNL1        0.0638
      2 C         141.9134  139.5171  167.0060 C.ar    1  UNL1       -0.0168
      3 C         142.7257  139.3044  168.2490 C.ar    1  UNL1       -0.0030
      4 C         142.0930  139.4806  169.5975 C.ar    1  UNL1        0.0111
      5 C         140.6482  139.8695  169.7031 C.ar    1  UNL1        0.0577
      6 CL        140.0156  140.0457  171.0518 Cl      1  UNL1       -0.0822
      7 C         139.8359  140.0822  168.4602 C.ar    1  UNL1        0.0111
      8 C         140.4685  139.9060  167.1116 C.ar    1  UNL1       -0.0030
      9 C         143.4805  140.3865  165.1249 C.ar    1  UNL1        0.0627
     10 C         143.2745  141.8286  165.4824 C.ar    1  UNL1        0.0151
     11 C         144.2089  142.8742  164.9500 C.ar    1  UNL1        0.0028
     12 C         145.3494  142.4777  164.0600 C.ar    1  UNL1        0.0207
     13 C         145.5555  141.0356  163.7025 C.ar    1  UNL1        0.0985
     14 N         144.6210  139.9899  164.2349 N.ar    1  UNL1       -0.2478
     15 C         142.2442  138.1192  164.8412 C.3     1  UNL1        0.0276
     16 C         141.4513  138.2410  163.5736 C.3     1  UNL1        0.0729
     17 C         138.9128  138.1430  164.1179 C.3     1  UNL1        0.0897
     18 N         140.1009  138.8936  163.5935 N.3     1  UNL1       -0.2703
     19 C         139.9386  140.2969  163.0889 C.3     1  UNL1        0.0897
@<TRIPOS>BOND
     1    17    18    1
     2    18    19    1
     3    18    16    1
     4    16    15    1
     5    15     1    1
     6     1     2    1
     7     2     3   ar
     8     3     4   ar
     9     4     5   ar
    10     5     6    1
    11     5     7   ar
    12     7     8   ar
    13     1     9    1
    14     9    10   ar
    15    10    11   ar
    16    11    12   ar
    17    12    13   ar
    18    13    14   ar
    19     8     2   ar
    20    14     9   ar
@<TRIPOS>MOLECULE
*****
 19 20 0 0 0
SMALL
GASTEIGER

@<TRIPOS>ATOM
      1 C         140.0100  141.9619  165.9659 C.3     1  UNL1        0.0638
      2 C         139.9077  143.0475  164.9357 C.ar    1  UNL1       -0.0168
      3 C         141.1154  143.8655  164.5857 C.ar    1  UNL1       -0.0030
      4 C         141.0131  144.9510  163.5557 C.ar    1  UNL1        0.0111
      5 C         139.7031  145.2186  162.8756 C.ar    1  UNL1        0.0577
      6 CL        139.6009  146.3042  161.8455 Cl      1  UNL1       -0.0822
      7 C         138.4955  144.4007  163.2256 C.ar    1  UNL1        0.0111
      8 C         138.5978  143.3151  164.2557 C.ar    1  UNL1       -0.0030
      9 C         139.6598  140.5490  165.6037 C.ar    1  UNL1        0.0627
     10 C         138.6834  139.7796  166.4431 C.ar    1  UNL1        0.0151
     11 C         138.3333  138.3667  166.0810 C.ar    1  UNL1        0.0028
     12 C         138.9594  137.7233  164.8795 C.ar    1  UNL1        0.0207
     13 C         139.9359  138.4927  164.0400 C.ar    1  UNL1        0.0985
     14 N         140.2861  139.9056  164.4021 N.ar    1  UNL1       -0.2478
     15 C         140.4624  142.2892  167.3580 C.3     1  UNL1        0.0276
     16 C         141.7500  141.7242  167.8805 C.3     1  UNL1        0.0729
     17 C         142.7154  139.3174  167.7227 C.3     1  UNL1        0.0897
     18 N         141.8015  140.3101  168.3779 N.3     1  UNL1       -0.2703
     19 C         140.9389  139.8885  169.5304 C.3     1  UNL1        0.0897
@<TRIPOS>BOND
     1    17    18    1
     2    18    19    1
     3    18    16    1
     4    16    15    1
     5    15     1    1
     6     1     2    1
     7     2     3   ar
     8     3     4   ar
     9     4     5   ar
    10     5     6    1
    11     5     7   ar
    12     7     8   ar
    13     1     9    1
    14     9    10   ar
    15    10    11   ar
    16    11    12   ar
    17    12    13   ar
    18    13    14   ar
    19     8     2   ar
    20    14     9   ar
@<TRIPOS>MOLECULE
*****
 19 20 0 0 0
SMALL
GASTEIGER

@<TRIPOS>ATOM
      1 C         141.3691  141.0968  166.7229 C.3     1  UNL1        0.0638
      2 C         142.0298  142.1162  165.8428 C.ar    1  UNL1       -0.0168
      3 C         141.2079  142.9230  164.8819 C.ar    1  UNL1       -0.0030
      4 C         141.8686  143.9422  164.0018 C.ar    1  UNL1        0.0111
      5 C         143.3512  144.1547  164.0827 C.ar    1  UNL1        0.0577
      6 CL        144.0119  145.1741  163.2026 Cl      1  UNL1       -0.0822
      7 C         144.1732  143.3479  165.0436 C.ar    1  UNL1        0.0111
      8 C         143.5125  142.3287  165.9237 C.ar    1  UNL1       -0.0030
      9 C         140.7554  141.5160  168.0258 C.ar    1  UNL1        0.0627
     10 C         139.9155  140.5479  168.8050 C.ar    1  UNL1        0.0151
     11 C         139.3017  140.9670  170.1080 C.ar    1  UNL1        0.0028
     12 C         139.5278  142.3543  170.6317 C.ar    1  UNL1        0.0207
     13 C         140.3677  143.3225  169.8524 C.ar    1  UNL1        0.0985
     14 N         140.9815  142.9033  168.5495 N.ar    1  UNL1       -0.2478
     15 C         141.3223  139.6585  166.3001 C.3     1  UNL1        0.0276
     16 C         140.3209  139.2096  165.2774 C.3     1  UNL1        0.0729
     17 C         138.0578  138.5651  166.3785 C.3     1  UNL1        0.0897
     18 N         138.8598  139.4718  165.4928 N.3     1  UNL1       -0.2703
     19 C         138.2008  140.6408  164.8225 C.3     1  UNL1        0.0897
@<TRIPOS>BOND
     1    17    18    1
     2    18    19    1
     3    18    16    1
     4    16    15    1
     5    15     1    1
     6     1     2    1
     7     2     3   ar
     8     3     4   ar
     9     4     5   ar
    10     5     6    1
    11     5     7   ar
    12     7     8   ar
    13     1     9    1
    14     9    10   ar
    15    10    11   ar
    16    11    12   ar
    17    12    13   ar
    18    13    14   ar
    19     8     2   ar
    20    14     9   ar
@<TRIPOS>MOLECULE
*****
 19 20 0 0 0
SMALL
GASTEIGER

@<TRIPOS>ATOM
      1 C         140.2154  141.6073  166.5717 C.3     1  UNL1        0.0638
      2 C         141.1153  142.4986  165.7681 C.ar    1  UNL1       -0.0168
      3 C         142.6016  142.3013  165.8138 C.ar    1  UNL1       -0.0030
      4 C         143.5015  143.1926  165.0102 C.ar    1  UNL1        0.0111
      5 C         142.9151  144.2811  164.1610 C.ar    1  UNL1        0.0577
      6 CL        143.8151  145.1724  163.3574 Cl      1  UNL1       -0.0822
      7 C         141.4289  144.4784  164.1153 C.ar    1  UNL1        0.0111
      8 C         140.5290  143.5871  164.9188 C.ar    1  UNL1       -0.0030
      9 C         140.3970  141.5007  168.0569 C.ar    1  UNL1        0.0627
     10 C         140.4546  142.7424  168.8964 C.ar    1  UNL1        0.0151
     11 C         140.6362  142.6358  170.3816 C.ar    1  UNL1        0.0028
     12 C         140.7602  141.2876  171.0272 C.ar    1  UNL1        0.0207
     13 C         140.7026  140.0458  170.1876 C.ar    1  UNL1        0.0985
     14 N         140.5210  140.1524  168.7024 N.ar    1  UNL1       -0.2478
     15 C         139.1338  140.8226  165.8902 C.3     1  UNL1        0.0276
     16 C         139.4708  139.5518  165.1679 C.3     1  UNL1        0.0729
     17 C         138.9206  137.8522  163.2815 C.3     1  UNL1        0.0897
     18 N         138.7988  139.2280  163.8665 N.3     1  UNL1       -0.2703
     19 C         138.0051  140.2801  163.1501 C.3     1  UNL1        0.0897
@<TRIPOS>BOND
     1    17    18    1
     2    18    19    1
     3    18    16    1
     4    16    15    1
     5    15     1    1
     6     1     2    1
     7     2     3   ar
     8     3     4   ar
     9     4     5   ar
    10     5     6    1
    11     5     7   ar
    12     7     8   ar
    13     1     9    1
    14     9    10   ar
    15    10    11   ar
    16    11    12   ar
    17    12    13   ar
    18    13    14   ar
    19     8     2   ar
    20    14     9   ar
