@<TRIPOS>MOLECULE
*****
 31 35 0 0 0
SMALL
GASTEIGER

@<TRIPOS>ATOM
      1 C         143.5024  143.2494  161.8319 C.2     1  UNL1        0.0866
      2 N         143.8957  144.5837  162.3932 N.2     1  UNL1       -0.1523
      3 N         143.8866  144.4781  163.8895 N.2     1  UNL1       -0.1523
      4 C         143.4876  143.0785  164.2529 C.2     1  UNL1        0.0858
      5 C         143.2502  142.3192  162.9813 C.3     1  UNL1        0.0883
      6 C         142.8512  140.9197  163.3448 C.3     1  UNL1        0.0384
      7 C         142.8421  140.8140  164.8410 C.ar    1  UNL1       -0.0202
      8 C         142.5264  139.6752  165.7649 C.ar    1  UNL1       -0.0045
      9 C         142.6041  139.8707  167.2500 C.ar    1  UNL1       -0.0027
     10 C         142.9974  141.2050  167.8113 C.ar    1  UNL1        0.0022
     11 C         143.3131  142.3438  166.8874 C.ar    1  UNL1       -0.0014
     12 C         143.2354  142.1483  165.4023 C.ar    1  UNL1        0.0115
     13 C         143.6336  141.7760  158.2435 C.ar    1  UNL1        0.0710
     14 C         144.0173  141.7314  159.6929 C.ar    1  UNL1        0.0165
     15 C         143.3824  142.9057  160.3768 C.ar    1  UNL1        0.0233
     16 C         142.6062  143.6761  159.3500 C.ar    1  UNL1        0.0373
     17 S         142.7615  142.9778  158.0315 S.2     1  UNL1       -0.0780
     18 C         144.4646  139.8070  156.1382 C.1     1  UNL1       -0.0534
     19 C         144.0492  140.7915  157.1908 C.1     1  UNL1       -0.0554
     20 C         144.8801  138.8224  155.0855 C.3     1  UNL1        0.2182
     21 O         144.9791  137.3636  155.4202 O.3     1  UNL1       -0.3374
     22 C         143.7373  136.5256  155.4963 C.3     1  UNL1        0.1755
     23 C         143.1220  136.2158  156.8287 C.3     1  UNL1        0.1743
     24 C         142.6983  137.8132  158.8334 C.3     1  UNL1        0.1742
     25 O         142.2675  137.2388  157.5164 O.3     1  UNL1       -0.3484
     26 C         143.0751  141.4005  169.2965 C.3     1  UNL1        0.1556
     27 N         141.8710  141.8754  170.0545 N.ar    1  UNL1       -0.2255
     28 C         141.5435  141.5514  171.4820 C.ar    1  UNL1        0.1975
     29 N         140.2531  142.2335  171.8278 N.ar    1  UNL1       -0.2007
     30 C         139.7830  142.9790  170.6139 C.ar    1  UNL1        0.2210
     31 N         140.7829  142.7577  169.5180 N.ar    1  UNL1       -0.1448
@<TRIPOS>BOND
     1    24    25    1
     2    25    23    1
     3    23    22    1
     4    22    21    1
     5    21    20    1
     6    20    18    1
     7    18    19    3
     8    19    13    1
     9    13    14   ar
    10    14    15   ar
    11    15     1    1
    12     1     2    2
    13     2     3    1
    14     3     4    2
    15     4     5    1
    16     5     6    1
    17     6     7    1
    18     7     8   ar
    19     8     9   ar
    20     9    10   ar
    21    10    26    1
    22    26    27    1
    23    27    28   ar
    24    28    29   ar
    25    29    30   ar
    26    30    31   ar
    27    10    11   ar
    28    11    12   ar
    29    15    16   ar
    30    16    17   ar
    31    17    13   ar
    32     5     1    1
    33    12     7   ar
    34    12     4    1
    35    31    27   ar
@<TRIPOS>MOLECULE
*****
 31 35 0 0 0
SMALL
GASTEIGER

@<TRIPOS>ATOM
      1 C         138.7008  141.6674  162.9737 C.2     1  UNL1        0.0866
      2 N         137.4365  142.2904  162.4606 N.2     1  UNL1       -0.1523
      3 N         137.7669  143.0448  161.2068 N.2     1  UNL1       -0.1523
      4 C         139.2356  142.8879  160.9451 C.2     1  UNL1        0.0858
      5 C         139.8127  142.0367  162.0370 C.3     1  UNL1        0.0883
      6 C         141.2814  141.8799  161.7752 C.3     1  UNL1        0.0384
      7 C         141.6119  142.6342  160.5215 C.ar    1  UNL1       -0.0202
      8 C         142.9008  142.8342  159.7808 C.ar    1  UNL1       -0.0045
      9 C         142.9253  143.6572  158.5270 C.ar    1  UNL1       -0.0027
     10 C         141.6609  144.2802  158.0139 C.ar    1  UNL1        0.0022
     11 C         140.3720  144.0802  158.7546 C.ar    1  UNL1       -0.0014
     12 C         140.3475  143.2572  160.0084 C.ar    1  UNL1        0.0115
     13 C         139.2622  140.1241  166.4905 C.ar    1  UNL1        0.0710
     14 C         139.2822  141.2975  165.5563 C.ar    1  UNL1        0.0165
     15 C         138.8306  140.8234  164.2068 C.ar    1  UNL1        0.0233
     16 C         138.5313  139.3569  164.3069 C.ar    1  UNL1        0.0373
     17 S         138.7981  138.9247  165.7184 S.2     1  UNL1       -0.0780
     18 C         140.0176  140.1683  169.3934 C.1     1  UNL1       -0.0534
     19 C         139.6399  140.1462  167.9420 C.1     1  UNL1       -0.0554
     20 C         140.3953  140.1905  170.8450 C.3     1  UNL1        0.2182
     21 O         140.4528  141.4939  171.5852 O.3     1  UNL1       -0.3374
     22 C         140.0625  142.7667  170.8942 C.3     1  UNL1        0.1755
     23 C         141.0953  143.5676  170.1581 C.3     1  UNL1        0.1743
     24 C         143.3923  142.3943  169.8467 C.3     1  UNL1        0.1742
     25 O         142.5451  143.4340  170.5185 O.3     1  UNL1       -0.3484
     26 C         141.6855  145.1033  156.7601 C.3     1  UNL1        0.1556
     27 N         140.4013  145.4610  156.0725 N.ar    1  UNL1       -0.2255
     28 C         139.8096  146.8355  155.9693 C.ar    1  UNL1        0.1975
     29 N         138.5260  146.7310  155.2004 N.ar    1  UNL1       -0.2007
     30 C         138.3243  145.2919  154.8282 C.ar    1  UNL1        0.2210
     31 N         139.4834  144.5070  155.3673 N.ar    1  UNL1       -0.1448
@<TRIPOS>BOND
     1    24    25    1
     2    25    23    1
     3    23    22    1
     4    22    21    1
     5    21    20    1
     6    20    18    1
     7    18    19    3
     8    19    13    1
     9    13    14   ar
    10    14    15   ar
    11    15     1    1
    12     1     2    2
    13     2     3    1
    14     3     4    2
    15     4     5    1
    16     5     6    1
    17     6     7    1
    18     7     8   ar
    19     8     9   ar
    20     9    10   ar
    21    10    26    1
    22    26    27    1
    23    27    28   ar
    24    28    29   ar
    25    29    30   ar
    26    30    31   ar
    27    10    11   ar
    28    11    12   ar
    29    15    16   ar
    30    16    17   ar
    31    17    13   ar
    32     5     1    1
    33    12     7   ar
    34    12     4    1
    35    31    27   ar
@<TRIPOS>MOLECULE
*****
 31 35 0 0 0
SMALL
GASTEIGER

@<TRIPOS>ATOM
      1 C         143.8418  142.1621  161.3763 C.2     1  UNL1        0.0866
      2 N         144.3236  143.5688  161.5738 N.2     1  UNL1       -0.1523
      3 N         144.2881  143.8691  163.0430 N.2     1  UNL1       -0.1523
      4 C         143.7843  142.6478  163.7536 C.2     1  UNL1        0.0858
      5 C         143.5085  141.5929  162.7234 C.3     1  UNL1        0.0883
      6 C         143.0048  140.3717  163.4340 C.3     1  UNL1        0.0384
      7 C         142.9692  140.6718  164.9033 C.ar    1  UNL1       -0.0202
      8 C         142.5604  139.8460  166.0868 C.ar    1  UNL1       -0.0045
      9 C         142.6334  140.4268  167.4678 C.ar    1  UNL1       -0.0027
     10 C         143.1152  141.8335  167.6653 C.ar    1  UNL1        0.0022
     11 C         143.5240  142.6594  166.4818 C.ar    1  UNL1       -0.0014
     12 C         143.4510  142.0786  165.1008 C.ar    1  UNL1        0.0115
     13 C         143.3118  139.7289  158.3990 C.ar    1  UNL1        0.0710
     14 C         143.3026  140.0205  159.8704 C.ar    1  UNL1        0.0165
     15 C         143.7155  141.4497  160.0623 C.ar    1  UNL1        0.0233
     16 C         143.9799  142.0415  158.7096 C.ar    1  UNL1        0.0373
     17 S         143.7304  140.9779  157.6816 S.2     1  UNL1       -0.0780
     18 C         142.6153  137.1080  157.1164 C.1     1  UNL1       -0.0534
     19 C         142.9636  138.4184  157.7577 C.1     1  UNL1       -0.0554
     20 C         142.2670  135.7975  156.4750 C.3     1  UNL1        0.2182
     21 O         143.3034  134.7191  156.3613 O.3     1  UNL1       -0.3374
     22 C         142.9110  133.3476  155.8977 C.3     1  UNL1        0.1755
     23 C         142.9384  132.1951  156.8573 C.3     1  UNL1        0.1743
     24 C         145.2886  132.2276  157.9642 C.3     1  UNL1        0.1742
     25 O         144.2359  131.5112  157.1715 O.3     1  UNL1       -0.3484
     26 C         143.1882  142.4144  169.0464 C.3     1  UNL1        0.1556
     27 N         141.9562  142.4771  169.8997 N.ar    1  UNL1       -0.2255
     28 C         141.7724  141.8148  171.2329 C.ar    1  UNL1        0.1975
     29 N         140.3943  142.1415  171.7268 N.ar    1  UNL1       -0.2007
     30 C         139.7262  143.0058  170.6988 C.ar    1  UNL1        0.2210
     31 N         140.6915  143.2132  169.5696 N.ar    1  UNL1       -0.1448
@<TRIPOS>BOND
     1    24    25    1
     2    25    23    1
     3    23    22    1
     4    22    21    1
     5    21    20    1
     6    20    18    1
     7    18    19    3
     8    19    13    1
     9    13    14   ar
    10    14    15   ar
    11    15     1    1
    12     1     2    2
    13     2     3    1
    14     3     4    2
    15     4     5    1
    16     5     6    1
    17     6     7    1
    18     7     8   ar
    19     8     9   ar
    20     9    10   ar
    21    10    26    1
    22    26    27    1
    23    27    28   ar
    24    28    29   ar
    25    29    30   ar
    26    30    31   ar
    27    10    11   ar
    28    11    12   ar
    29    15    16   ar
    30    16    17   ar
    31    17    13   ar
    32     5     1    1
    33    12     7   ar
    34    12     4    1
    35    31    27   ar
@<TRIPOS>MOLECULE
*****
 31 35 0 0 0
SMALL
GASTEIGER

@<TRIPOS>ATOM
      1 C         141.2220  144.6785  162.5612 C.2     1  UNL1        0.0866
      2 N         139.9908  145.5026  162.7957 N.2     1  UNL1       -0.1523
      3 N         139.4819  145.9655  161.4628 N.2     1  UNL1       -0.1523
      4 C         140.3987  145.4275  160.4044 C.2     1  UNL1        0.0858
      5 C         141.4741  144.6321  161.0833 C.3     1  UNL1        0.0883
      6 C         142.3908  144.0942  160.0249 C.3     1  UNL1        0.0384
      7 C         141.8820  144.5571  158.6919 C.ar    1  UNL1       -0.0202
      8 C         142.3808  144.3347  157.2948 C.ar    1  UNL1       -0.0045
      9 C         141.6483  144.9363  156.1324 C.ar    1  UNL1       -0.0027
     10 C         140.4171  145.7604  156.3669 C.ar    1  UNL1        0.0022
     11 C         139.9183  145.9828  157.7639 C.ar    1  UNL1       -0.0014
     12 C         140.6508  145.3811  158.9264 C.ar    1  UNL1        0.0115
     13 C         142.7129  142.7752  165.5976 C.ar    1  UNL1        0.0710
     14 C         141.5352  143.2660  164.8088 C.ar    1  UNL1        0.0165
     15 C         142.0549  144.0170  163.6189 C.ar    1  UNL1        0.0233
     16 C         143.5537  143.9903  163.6722 C.ar    1  UNL1        0.0373
     17 S         143.9604  143.2228  164.8952 S.2     1  UNL1       -0.0780
     18 C         142.5941  141.1787  168.1347 C.1     1  UNL1       -0.0534
     19 C         142.6535  141.9769  166.8662 C.1     1  UNL1       -0.0554
     20 C         142.5347  140.3804  169.4032 C.3     1  UNL1        0.2182
     21 O         141.6934  140.8563  170.5503 O.3     1  UNL1       -0.3374
     22 C         140.3181  140.2937  170.7557 C.3     1  UNL1        0.1755
     23 C         139.2451  140.5457  169.7383 C.3     1  UNL1        0.1743
     24 C         139.3028  139.8761  167.2286 C.3     1  UNL1        0.1742
     25 O         138.9867  139.5399  168.6559 O.3     1  UNL1       -0.3484
     26 C         139.6846  146.3620  155.2043 C.3     1  UNL1        0.1556
     27 N         139.4297  147.8396  155.1618 N.ar    1  UNL1       -0.2255
     28 C         139.9258  148.7900  154.1128 C.ar    1  UNL1        0.1975
     29 N         139.4367  150.1640  154.4635 N.ar    1  UNL1       -0.2007
     30 C         138.6384  150.0627  155.7295 C.ar    1  UNL1        0.2210
     31 N         138.6341  148.6262  156.1610 N.ar    1  UNL1       -0.1448
@<TRIPOS>BOND
     1    24    25    1
     2    25    23    1
     3    23    22    1
     4    22    21    1
     5    21    20    1
     6    20    18    1
     7    18    19    3
     8    19    13    1
     9    13    14   ar
    10    14    15   ar
    11    15     1    1
    12     1     2    2
    13     2     3    1
    14     3     4    2
    15     4     5    1
    16     5     6    1
    17     6     7    1
    18     7     8   ar
    19     8     9   ar
    20     9    10   ar
    21    10    26    1
    22    26    27    1
    23    27    28   ar
    24    28    29   ar
    25    29    30   ar
    26    30    31   ar
    27    10    11   ar
    28    11    12   ar
    29    15    16   ar
    30    16    17   ar
    31    17    13   ar
    32     5     1    1
    33    12     7   ar
    34    12     4    1
    35    31    27   ar
@<TRIPOS>MOLECULE
*****
 31 35 0 0 0
SMALL
GASTEIGER

@<TRIPOS>ATOM
      1 C         140.0503  141.0912  161.7618 C.2     1  UNL1        0.0866
      2 N         141.1337  142.0757  162.0888 N.2     1  UNL1       -0.1523
      3 N         141.2778  142.1279  163.5810 N.2     1  UNL1       -0.1523
      4 C         140.2834  141.1755  164.1762 C.2     1  UNL1        0.0858
      5 C         139.5248  140.5348  163.0519 C.3     1  UNL1        0.0883
      6 C         138.5304  139.5825  163.6472 C.3     1  UNL1        0.0384
      7 C         138.6745  139.6347  165.1394 C.ar    1  UNL1       -0.0202
      8 C         137.9591  138.9128  166.2426 C.ar    1  UNL1       -0.0045
      9 C         138.3271  139.1756  167.6728 C.ar    1  UNL1       -0.0027
     10 C         139.4105  140.1601  167.9997 C.ar    1  UNL1        0.0022
     11 C         140.1259  140.8819  166.8965 C.ar    1  UNL1       -0.0014
     12 C         139.7579  140.6192  165.4663 C.ar    1  UNL1        0.0115
     13 C         138.3095  140.6888  158.3161 C.ar    1  UNL1        0.0710
     14 C         138.4295  141.3582  159.6531 C.ar    1  UNL1        0.0165
     15 C         139.5757  140.7269  160.3863 C.ar    1  UNL1        0.0233
     16 C         140.1642  139.6673  159.5025 C.ar    1  UNL1        0.0373
     17 S         139.3815  139.6438  158.2230 S.2     1  UNL1       -0.0780
     18 C         136.2814  141.3278  156.2000 C.1     1  UNL1       -0.0534
     19 C         137.2954  141.0083  157.2580 C.1     1  UNL1       -0.0554
     20 C         135.2672  141.6474  155.1420 C.3     1  UNL1        0.2182
     21 O         134.1553  140.6829  154.8530 O.3     1  UNL1       -0.3374
     22 C         133.9209  139.5140  155.7634 C.3     1  UNL1        0.1755
     23 C         132.8058  139.5559  156.7658 C.3     1  UNL1        0.1743
     24 C         130.6046  138.5477  157.7083 C.3     1  UNL1        0.1742
     25 O         131.8237  138.4248  156.8431 O.3     1  UNL1       -0.3484
     26 C         139.7785  140.4228  169.4300 C.3     1  UNL1        0.1556
     27 N         140.6186  141.6147  169.7815 N.ar    1  UNL1       -0.2255
     28 C         140.1110  142.9949  170.0770 C.ar    1  UNL1        0.1975
     29 N         141.2924  143.8689  170.3774 N.ar    1  UNL1       -0.2007
     30 C         142.5303  143.0288  170.2675 C.ar    1  UNL1        0.2210
     31 N         142.1138  141.6357  169.8993 N.ar    1  UNL1       -0.1448
@<TRIPOS>BOND
     1    24    25    1
     2    25    23    1
     3    23    22    1
     4    22    21    1
     5    21    20    1
     6    20    18    1
     7    18    19    3
     8    19    13    1
     9    13    14   ar
    10    14    15   ar
    11    15     1    1
    12     1     2    2
    13     2     3    1
    14     3     4    2
    15     4     5    1
    16     5     6    1
    17     6     7    1
    18     7     8   ar
    19     8     9   ar
    20     9    10   ar
    21    10    26    1
    22    26    27    1
    23    27    28   ar
    24    28    29   ar
    25    29    30   ar
    26    30    31   ar
    27    10    11   ar
    28    11    12   ar
    29    15    16   ar
    30    16    17   ar
    31    17    13   ar
    32     5     1    1
    33    12     7   ar
    34    12     4    1
    35    31    27   ar
@<TRIPOS>MOLECULE
*****
 31 35 0 0 0
SMALL
GASTEIGER

@<TRIPOS>ATOM
      1 C         139.4521  139.0365  161.9652 C.2     1  UNL1        0.0866
      2 N         138.7348  138.0022  162.7812 N.2     1  UNL1       -0.1523
      3 N         139.1895  138.1372  164.2043 N.2     1  UNL1       -0.1523
      4 C         140.1879  139.2550  164.2678 C.2     1  UNL1        0.0858
      5 C         140.3501  139.8107  162.8840 C.3     1  UNL1        0.0883
      6 C         141.3485  140.9284  162.9475 C.3     1  UNL1        0.0384
      7 C         141.8032  141.0634  164.3706 C.ar    1  UNL1       -0.0202
      8 C         142.7778  141.9945  165.0287 C.ar    1  UNL1       -0.0045
      9 C         143.0351  141.8914  166.5029 C.ar    1  UNL1       -0.0027
     10 C         142.3178  140.8571  167.3188 C.ar    1  UNL1        0.0022
     11 C         141.3432  139.9260  166.6607 C.ar    1  UNL1       -0.0014
     12 C         141.0859  140.0292  165.1865 C.ar    1  UNL1        0.0115
     13 C         138.4859  140.0607  158.3482 C.ar    1  UNL1        0.0710
     14 C         138.2760  140.1363  159.8316 C.ar    1  UNL1        0.0165
     15 C         139.2984  139.2577  160.4896 C.ar    1  UNL1        0.0233
     16 C         140.1400  138.6392  159.4130 C.ar    1  UNL1        0.0373
     17 S         139.6378  139.1355  158.0895 S.2     1  UNL1       -0.0780
     18 C         136.8829  141.5063  156.2649 C.1     1  UNL1       -0.0534
     19 C         137.6844  140.7835  157.3065 C.1     1  UNL1       -0.0554
     20 C         136.0814  142.2290  155.2231 C.3     1  UNL1        0.2182
     21 O         134.6715  141.8061  154.9345 O.3     1  UNL1       -0.3374
     22 C         134.0698  140.6477  155.6734 C.3     1  UNL1        0.1755
     23 C         132.6478  140.7166  156.1460 C.3     1  UNL1        0.1743
     24 C         133.1486  139.0412  158.0675 C.3     1  UNL1        0.1742
     25 O         132.2564  140.0725  157.4428 O.3     1  UNL1       -0.3484
     26 C         142.5751  140.7540  168.7931 C.3     1  UNL1        0.1556
     27 N         141.6553  141.4328  169.7642 N.ar    1  UNL1       -0.2255
     28 C         141.6874  141.2889  171.2569 C.ar    1  UNL1        0.1975
     29 N         140.5939  142.1419  171.8285 N.ar    1  UNL1       -0.2007
     30 C         139.8860  142.8131  170.6889 C.ar    1  UNL1        0.2210
     31 N         140.5420  142.3748  169.4132 N.ar    1  UNL1       -0.1448
@<TRIPOS>BOND
     1    24    25    1
     2    25    23    1
     3    23    22    1
     4    22    21    1
     5    21    20    1
     6    20    18    1
     7    18    19    3
     8    19    13    1
     9    13    14   ar
    10    14    15   ar
    11    15     1    1
    12     1     2    2
    13     2     3    1
    14     3     4    2
    15     4     5    1
    16     5     6    1
    17     6     7    1
    18     7     8   ar
    19     8     9   ar
    20     9    10   ar
    21    10    26    1
    22    26    27    1
    23    27    28   ar
    24    28    29   ar
    25    29    30   ar
    26    30    31   ar
    27    10    11   ar
    28    11    12   ar
    29    15    16   ar
    30    16    17   ar
    31    17    13   ar
    32     5     1    1
    33    12     7   ar
    34    12     4    1
    35    31    27   ar
@<TRIPOS>MOLECULE
*****
 31 35 0 0 0
SMALL
GASTEIGER

@<TRIPOS>ATOM
      1 C         142.4901  143.9427  161.7478 C.2     1  UNL1        0.0866
      2 N         143.5463  144.7277  162.4677 N.2     1  UNL1       -0.1523
      3 N         143.6228  144.2187  163.8766 N.2     1  UNL1       -0.1523
      4 C         142.6138  143.1190  164.0275 C.2     1  UNL1        0.0858
      5 C         141.9138  142.9485  162.7119 C.3     1  UNL1        0.0883
      6 C         140.9049  141.8489  162.8628 C.3     1  UNL1        0.0384
      7 C         140.9813  141.3398  164.2717 C.ar    1  UNL1       -0.0202
      8 C         140.2256  140.2628  164.9922 C.ar    1  UNL1       -0.0045
      9 C         140.5261  139.9709  166.4324 C.ar    1  UNL1       -0.0027
     10 C         141.5823  140.7559  167.1523 C.ar    1  UNL1        0.0022
     11 C         142.3380  141.8328  166.4318 C.ar    1  UNL1       -0.0014
     12 C         142.0375  142.1248  164.9916 C.ar    1  UNL1        0.0115
     13 C         141.1187  145.0420  158.2872 C.ar    1  UNL1        0.0710
     14 C         141.2999  145.2730  159.7582 C.ar    1  UNL1        0.0165
     15 C         142.0819  144.1207  160.3155 C.ar    1  UNL1        0.0233
     16 C         142.3840  143.1774  159.1889 C.ar    1  UNL1        0.0373
     17 S         141.7887  143.7469  157.9353 S.2     1  UNL1       -0.0780
     18 C         139.6706  146.8524  156.3832 C.1     1  UNL1       -0.0534
     19 C         140.3947  145.9472  157.3352 C.1     1  UNL1       -0.0554
     20 C         138.9465  147.7576  155.4312 C.3     1  UNL1        0.2182
     21 O         139.6407  148.9609  154.8655 O.3     1  UNL1       -0.3374
     22 C         138.9589  150.2970  154.8822 C.3     1  UNL1        0.1755
     23 C         138.8425  151.0636  156.1662 C.3     1  UNL1        0.1743
     24 C         138.3816  153.3804  155.0846 C.3     1  UNL1        0.1742
     25 O         139.0097  152.5542  156.1676 O.3     1  UNL1       -0.3484
     26 C         141.8828  140.4639  168.5926 C.3     1  UNL1        0.1556
     27 N         141.2237  141.2676  169.6741 N.ar    1  UNL1       -0.2255
     28 C         141.4770  141.1388  171.1469 C.ar    1  UNL1        0.1975
     29 N         140.6055  142.1327  171.8558 N.ar    1  UNL1       -0.2007
     30 C         139.8135  142.8758  170.8210 C.ar    1  UNL1        0.2210
     31 N         140.1956  142.3411  169.4727 N.ar    1  UNL1       -0.1448
@<TRIPOS>BOND
     1    24    25    1
     2    25    23    1
     3    23    22    1
     4    22    21    1
     5    21    20    1
     6    20    18    1
     7    18    19    3
     8    19    13    1
     9    13    14   ar
    10    14    15   ar
    11    15     1    1
    12     1     2    2
    13     2     3    1
    14     3     4    2
    15     4     5    1
    16     5     6    1
    17     6     7    1
    18     7     8   ar
    19     8     9   ar
    20     9    10   ar
    21    10    26    1
    22    26    27    1
    23    27    28   ar
    24    28    29   ar
    25    29    30   ar
    26    30    31   ar
    27    10    11   ar
    28    11    12   ar
    29    15    16   ar
    30    16    17   ar
    31    17    13   ar
    32     5     1    1
    33    12     7   ar
    34    12     4    1
    35    31    27   ar
@<TRIPOS>MOLECULE
*****
 31 35 0 0 0
SMALL
GASTEIGER

@<TRIPOS>ATOM
      1 C         142.3944  139.6935  162.0841 C.2     1  UNL1        0.0866
      2 N         143.5879  140.3493  162.7131 N.2     1  UNL1       -0.1523
      3 N         143.2815  140.5760  164.1639 N.2     1  UNL1       -0.1523
      4 C         141.8985  140.0604  164.4315 C.2     1  UNL1        0.0858
      5 C         141.3503  139.5150  163.1462 C.3     1  UNL1        0.0883
      6 C         139.9674  138.9995  163.4139 C.3     1  UNL1        0.0384
      7 C         139.6608  139.2262  164.8646 C.ar    1  UNL1       -0.0202
      8 C         138.4491  138.9203  165.6941 C.ar    1  UNL1       -0.0045
      9 C         138.4309  139.2701  167.1526 C.ar    1  UNL1       -0.0027
     10 C         139.6245  139.9258  167.7816 C.ar    1  UNL1        0.0022
     11 C         140.8361  140.2317  166.9521 C.ar    1  UNL1       -0.0014
     12 C         140.8543  139.8819  165.4936 C.ar    1  UNL1        0.0115
     13 C         142.4228  138.0177  158.5833 C.ar    1  UNL1        0.0710
     14 C         142.7607  138.0049  160.0447 C.ar    1  UNL1        0.0165
     15 C         142.2674  139.2876  160.6457 C.ar    1  UNL1        0.0233
     16 C         141.6246  140.0932  159.5558 C.ar    1  UNL1        0.0373
     17 S         141.7207  139.3083  158.2811 S.2     1  UNL1       -0.0780
     18 C         143.0426  135.8437  156.6111 C.1     1  UNL1       -0.0534
     19 C         142.7328  136.9307  157.5972 C.1     1  UNL1       -0.0554
     20 C         143.3525  134.7568  155.6250 C.3     1  UNL1        0.2182
     21 O         144.1693  133.5716  156.0470 O.3     1  UNL1       -0.3374
     22 C         144.1947  133.1527  157.4872 C.3     1  UNL1        0.1755
     23 C         145.1279  132.0677  157.9363 C.3     1  UNL1        0.1743
     24 C         144.4399  129.6266  158.5000 C.3     1  UNL1        0.1742
     25 O         144.8947  130.6507  157.5030 O.3     1  UNL1       -0.3484
     26 C         139.6062  140.2756  169.2402 C.3     1  UNL1        0.1556
     27 N         140.4988  141.3623  169.7620 N.ar    1  UNL1       -0.2255
     28 C         140.2398  142.8368  169.6686 C.ar    1  UNL1        0.1975
     29 N         141.3880  143.5512  170.3178 N.ar    1  UNL1       -0.2007
     30 C         142.3566  142.5181  170.8124 C.ar    1  UNL1        0.2210
     31 N         141.8071  141.1653  170.4689 N.ar    1  UNL1       -0.1448
@<TRIPOS>BOND
     1    24    25    1
     2    25    23    1
     3    23    22    1
     4    22    21    1
     5    21    20    1
     6    20    18    1
     7    18    19    3
     8    19    13    1
     9    13    14   ar
    10    14    15   ar
    11    15     1    1
    12     1     2    2
    13     2     3    1
    14     3     4    2
    15     4     5    1
    16     5     6    1
    17     6     7    1
    18     7     8   ar
    19     8     9   ar
    20     9    10   ar
    21    10    26    1
    22    26    27    1
    23    27    28   ar
    24    28    29   ar
    25    29    30   ar
    26    30    31   ar
    27    10    11   ar
    28    11    12   ar
    29    15    16   ar
    30    16    17   ar
    31    17    13   ar
    32     5     1    1
    33    12     7   ar
    34    12     4    1
    35    31    27   ar
@<TRIPOS>MOLECULE
*****
 31 35 0 0 0
SMALL
GASTEIGER

@<TRIPOS>ATOM
      1 C         142.0838  139.2752  161.9478 C.2     1  UNL1        0.0866
      2 N         143.1947  140.1236  162.4919 N.2     1  UNL1       -0.1523
      3 N         142.8661  140.4601  163.9163 N.2     1  UNL1       -0.1523
      4 C         141.5520  139.8196  164.2524 C.2     1  UNL1        0.0858
      5 C         141.0686  139.0873  163.0359 C.3     1  UNL1        0.0883
      6 C         139.7546  138.4467  163.3721 C.3     1  UNL1        0.0384
      7 C         139.4258  138.7832  164.7965 C.ar    1  UNL1       -0.0202
      8 C         138.2585  138.4266  165.6683 C.ar    1  UNL1       -0.0045
      9 C         138.2020  138.9184  167.0842 C.ar    1  UNL1       -0.0027
     10 C         139.3129  139.7669  167.6283 C.ar    1  UNL1        0.0022
     11 C         140.4802  140.1235  166.7564 C.ar    1  UNL1       -0.0014
     12 C         140.5367  139.6317  165.3405 C.ar    1  UNL1        0.0115
     13 C         141.1634  138.0731  158.3738 C.ar    1  UNL1        0.0710
     14 C         140.7995  138.7462  159.6640 C.ar    1  UNL1        0.0165
     15 C         142.0025  138.7133  160.5594 C.ar    1  UNL1        0.0233
     16 C         143.1099  138.0197  159.8227 C.ar    1  UNL1        0.0373
     17 S         142.5913  137.6240  158.4719 S.2     1  UNL1       -0.0780
     18 C         139.3533  137.6917  156.0121 C.1     1  UNL1       -0.0534
     19 C         140.2583  137.8824  157.1930 C.1     1  UNL1       -0.0554
     20 C         138.4483  137.5010  154.8312 C.3     1  UNL1        0.2182
     21 O         136.9615  137.6028  155.0015 O.3     1  UNL1       -0.3374
     22 C         136.1826  138.6082  154.2062 C.3     1  UNL1        0.1755
     23 C         135.1658  139.4768  154.8856 C.3     1  UNL1        0.1743
     24 C         133.5952  139.8033  156.9293 C.3     1  UNL1        0.1742
     25 O         134.2714  138.8989  155.9420 O.3     1  UNL1       -0.3484
     26 C         139.2564  140.2588  169.0443 C.3     1  UNL1        0.1556
     27 N         140.2909  141.2225  169.5453 N.ar    1  UNL1       -0.2255
     28 C         141.4835  140.8770  170.3869 C.ar    1  UNL1        0.1975
     29 N         142.2441  142.1418  170.6545 N.ar    1  UNL1       -0.2007
     30 C         141.5216  143.2691  169.9782 C.ar    1  UNL1        0.2210
     31 N         140.3144  142.7009  169.2928 N.ar    1  UNL1       -0.1448
@<TRIPOS>BOND
     1    24    25    1
     2    25    23    1
     3    23    22    1
     4    22    21    1
     5    21    20    1
     6    20    18    1
     7    18    19    3
     8    19    13    1
     9    13    14   ar
    10    14    15   ar
    11    15     1    1
    12     1     2    2
    13     2     3    1
    14     3     4    2
    15     4     5    1
    16     5     6    1
    17     6     7    1
    18     7     8   ar
    19     8     9   ar
    20     9    10   ar
    21    10    26    1
    22    26    27    1
    23    27    28   ar
    24    28    29   ar
    25    29    30   ar
    26    30    31   ar
    27    10    11   ar
    28    11    12   ar
    29    15    16   ar
    30    16    17   ar
    31    17    13   ar
    32     5     1    1
    33    12     7   ar
    34    12     4    1
    35    31    27   ar
