@<TRIPOS>MOLECULE
*****
 27 30 0 0 0
SMALL
GASTEIGER

@<TRIPOS>ATOM
      1 C         140.5605  140.8299  166.5415 C.3     1  UNL1        0.1806
      2 C         140.2965  141.0646  167.9993 C.3     1  UNL1        0.0488
      3 C         140.7005  141.8837  169.1892 C.3     1  UNL1        0.0118
      4 C         139.8694  141.4444  170.3580 C.3     1  UNL1        0.0646
      5 C         138.9517  140.3538  169.8905 C.2     1  UNL1        0.1504
      6 O         137.9466  139.6257  170.7330 O.2     1  UNL1       -0.2961
      7 C         139.2157  140.1190  168.4327 C.3     1  UNL1        0.0626
      8 C         138.8118  139.2999  167.2429 C.3     1  UNL1        0.0271
      9 C         139.6429  139.7392  166.0739 C.3     1  UNL1        0.0982
     10 N         139.5693  139.1852  164.6820 N.3     1  UNL1       -0.2697
     11 C         138.3366  139.3979  163.8542 C.3     1  UNL1        0.0722
     12 C         138.2630  138.8439  162.4623 C.3     1  UNL1        0.0187
     13 C         139.4222  138.0771  161.8980 C.3     1  UNL1        0.0183
     14 C         140.6549  137.8643  162.7257 C.3     1  UNL1        0.0670
     15 N         141.8141  137.0976  162.1614 N.3     1  UNL1       -0.3211
     16 C         140.7285  138.4184  164.1177 C.3     1  UNL1        0.0878
     17 H         141.5933  136.7974  161.2119 H       1  UNL1        0.1189
     18 H         141.9960  136.2795  162.7429 H       1  UNL1        0.1189
     19 O         141.5656  141.5579  165.6990 O.3     1  UNL1       -0.4778
     20 C         140.2105  144.7640  162.8469 C.ar    1  UNL1        0.0686
     21 C         139.6608  144.7200  164.2418 C.ar    1  UNL1        0.0134
     22 C         140.1125  143.6512  165.1926 C.ar    1  UNL1        0.0376
     23 C         141.1139  142.6266  164.7484 C.ar    1  UNL1        0.1385
     24 C         141.6637  142.6707  163.3533 C.ar    1  UNL1        0.0376
     25 C         141.2120  143.7394  162.4027 C.ar    1  UNL1        0.0134
     26 N         139.3071  146.9014  160.9455 N.1     1  UNL1       -0.1908
     27 C         139.7588  145.8327  161.8962 C.1     1  UNL1        0.1004
@<TRIPOS>BOND
     1    26    27    3
     2    27    20    1
     3    20    21   ar
     4    21    22   ar
     5    22    23   ar
     6    23    19    1
     7     1    19    1
     8     1     2    1
     9     2     3    1
    10     3     4    1
    11     4     5    1
    12     5     6    2
    13     5     7    1
    14     7     8    1
    15     8     9    1
    16     9    10    1
    17    10    11    1
    18    11    12    1
    19    12    13    1
    20    13    14    1
    21    14    15    1
    22    14    16    1
    23    23    24   ar
    24    24    25   ar
    25    25    20   ar
    26     9     1    1
    27    16    10    1
    28     7     2    1
    29    15    17    1
    30    15    18    1
@<TRIPOS>MOLECULE
*****
 27 30 0 0 0
SMALL
GASTEIGER

@<TRIPOS>ATOM
      1 C         140.4575  140.7420  166.5190 C.3     1  UNL1        0.1806
      2 C         140.3002  140.9503  167.9961 C.3     1  UNL1        0.0488
      3 C         140.8385  141.6971  169.1804 C.3     1  UNL1        0.0118
      4 C         140.0457  141.2874  170.3860 C.3     1  UNL1        0.0646
      5 C         139.0175  140.2875  169.9469 C.2     1  UNL1        0.1504
      6 O         138.0091  139.6141  170.8299 O.2     1  UNL1       -0.2961
      7 C         139.1748  140.0791  168.4698 C.3     1  UNL1        0.0626
      8 C         138.6365  139.3324  167.2855 C.3     1  UNL1        0.0271
      9 C         139.4292  139.7420  166.0797 C.3     1  UNL1        0.0982
     10 N         139.2289  139.2399  164.6806 N.3     1  UNL1       -0.2697
     11 C         139.9940  138.0441  164.1961 C.3     1  UNL1        0.0722
     12 C         139.7937  137.5420  162.7970 C.3     1  UNL1        0.0187
     13 C         138.8283  138.2357  161.8822 C.3     1  UNL1        0.0183
     14 C         138.0632  139.4316  162.3666 C.3     1  UNL1        0.0670
     15 N         137.0979  140.1253  161.4518 N.3     1  UNL1       -0.3211
     16 C         138.2636  139.9336  163.7658 C.3     1  UNL1        0.0878
     17 H         137.0881  139.6540  160.5472 H       1  UNL1        0.1189
     18 H         137.3857  141.0957  161.3265 H       1  UNL1        0.1189
     19 O         141.4659  141.4154  165.6360 O.3     1  UNL1       -0.4778
     20 C         140.1820  144.7271  162.8730 C.ar    1  UNL1        0.0686
     21 C         139.3564  144.3955  164.0806 C.ar    1  UNL1        0.0134
     22 C         139.7843  143.2915  165.0017 C.ar    1  UNL1        0.0376
     23 C         141.0380  142.5193  164.7150 C.ar    1  UNL1        0.1385
     24 C         141.8636  142.8510  163.5074 C.ar    1  UNL1        0.0376
     25 C         141.4356  143.9549  162.5864 C.ar    1  UNL1        0.0134
     26 N         139.3261  146.9350  161.0311 N.1     1  UNL1       -0.1908
     27 C         139.7541  145.8311  161.9521 C.1     1  UNL1        0.1004
@<TRIPOS>BOND
     1    26    27    3
     2    27    20    1
     3    20    21   ar
     4    21    22   ar
     5    22    23   ar
     6    23    19    1
     7     1    19    1
     8     1     2    1
     9     2     3    1
    10     3     4    1
    11     4     5    1
    12     5     6    2
    13     5     7    1
    14     7     8    1
    15     8     9    1
    16     9    10    1
    17    10    11    1
    18    11    12    1
    19    12    13    1
    20    13    14    1
    21    14    15    1
    22    14    16    1
    23    23    24   ar
    24    24    25   ar
    25    25    20   ar
    26     9     1    1
    27    16    10    1
    28     7     2    1
    29    15    17    1
    30    15    18    1
@<TRIPOS>MOLECULE
*****
 27 30 0 0 0
SMALL
GASTEIGER

@<TRIPOS>ATOM
      1 C         141.5904  141.4648  166.9116 C.3     1  UNL1        0.1806
      2 C         141.9169  141.7760  168.3422 C.3     1  UNL1        0.0488
      3 C         142.8816  142.4948  169.2380 C.3     1  UNL1        0.0118
      4 C         142.4452  142.2795  170.6569 C.3     1  UNL1        0.0646
      5 C         141.2107  141.4276  170.6380 C.2     1  UNL1        0.1504
      6 O         140.4383  140.9677  171.8388 O.2     1  UNL1       -0.2961
      7 C         140.8841  141.1164  169.2074 C.3     1  UNL1        0.0626
      8 C         139.9194  140.3976  168.3115 C.3     1  UNL1        0.0271
      9 C         140.3558  140.6129  166.8926 C.3     1  UNL1        0.0982
     10 N         139.6770  140.0714  165.6696 N.3     1  UNL1       -0.2697
     11 C         140.0615  138.7246  165.1326 C.3     1  UNL1        0.0722
     12 C         139.3827  138.1831  163.9096 C.3     1  UNL1        0.0187
     13 C         138.3193  138.9885  163.2234 C.3     1  UNL1        0.0183
     14 C         137.9348  140.3352  163.7603 C.3     1  UNL1        0.0670
     15 N         136.8714  141.1405  163.0742 N.3     1  UNL1       -0.3211
     16 C         138.6137  140.8767  164.9834 C.3     1  UNL1        0.0878
     17 H         136.5215  140.6241  162.2672 H       1  UNL1        0.1189
     18 H         137.2646  142.0293  162.7646 H       1  UNL1        0.1189
     19 O         142.3627  141.9247  165.7108 O.3     1  UNL1       -0.4778
     20 C         140.5374  144.8926  162.8630 C.ar    1  UNL1        0.0686
     21 C         139.9532  144.7102  164.2325 C.ar    1  UNL1        0.0134
     22 C         140.5616  143.7209  165.1818 C.ar    1  UNL1        0.0376
     23 C         141.7543  142.9140  164.7616 C.ar    1  UNL1        0.1385
     24 C         142.3385  143.0965  163.3921 C.ar    1  UNL1        0.0376
     25 C         141.7301  144.0858  162.4428 C.ar    1  UNL1        0.0134
     26 N         139.3206  146.8712  160.9645 N.1     1  UNL1       -0.1908
     27 C         139.9290  145.8819  161.9138 C.1     1  UNL1        0.1004
@<TRIPOS>BOND
     1    26    27    3
     2    27    20    1
     3    20    21   ar
     4    21    22   ar
     5    22    23   ar
     6    23    19    1
     7     1    19    1
     8     1     2    1
     9     2     3    1
    10     3     4    1
    11     4     5    1
    12     5     6    2
    13     5     7    1
    14     7     8    1
    15     8     9    1
    16     9    10    1
    17    10    11    1
    18    11    12    1
    19    12    13    1
    20    13    14    1
    21    14    15    1
    22    14    16    1
    23    23    24   ar
    24    24    25   ar
    25    25    20   ar
    26     9     1    1
    27    16    10    1
    28     7     2    1
    29    15    17    1
    30    15    18    1
@<TRIPOS>MOLECULE
*****
 27 30 0 0 0
SMALL
GASTEIGER

@<TRIPOS>ATOM
      1 C         140.5469  139.9605  167.0656 C.3     1  UNL1        0.1806
      2 C         140.8119  140.2363  168.5160 C.3     1  UNL1        0.0488
      3 C         140.2309  140.8327  169.7637 C.3     1  UNL1        0.0118
      4 C         141.2406  140.6825  170.8628 C.3     1  UNL1        0.0646
      5 C         142.4455  139.9932  170.2944 C.2     1  UNL1        0.1504
      6 O         143.6959  139.6415  171.0447 O.2     1  UNL1       -0.2961
      7 C         142.1806  139.7174  168.8440 C.3     1  UNL1        0.0626
      8 C         142.7615  139.1210  167.5963 C.3     1  UNL1        0.0271
      9 C         141.7518  139.2712  166.4971 C.3     1  UNL1        0.0982
     10 N         141.9180  138.8127  165.0787 N.3     1  UNL1       -0.2697
     11 C         140.9099  137.8852  164.4673 C.3     1  UNL1        0.0722
     12 C         141.0760  137.4266  163.0489 C.3     1  UNL1        0.0187
     13 C         142.2502  137.8956  162.2416 C.3     1  UNL1        0.0183
     14 C         143.2582  138.8230  162.8529 C.3     1  UNL1        0.0670
     15 N         144.4323  139.2919  162.0457 N.3     1  UNL1       -0.3211
     16 C         143.0921  139.2816  164.2715 C.3     1  UNL1        0.0878
     17 H         144.3868  138.8852  161.1115 H       1  UNL1        0.1189
     18 H         145.2968  139.0002  162.5018 H       1  UNL1        0.1189
     19 O         139.2966  140.3122  166.3153 O.3     1  UNL1       -0.4778
     20 C         139.2581  143.8564  163.5427 C.ar    1  UNL1        0.0686
     21 C         140.2743  143.7760  164.6431 C.ar    1  UNL1        0.0134
     22 C         140.2872  142.5946  165.5673 C.ar    1  UNL1        0.0376
     23 C         139.2838  141.4936  165.3911 C.ar    1  UNL1        0.1385
     24 C         138.2675  141.5740  164.2907 C.ar    1  UNL1        0.0376
     25 C         138.2547  142.7554  163.3665 C.ar    1  UNL1        0.0134
     26 N         139.2324  146.2192  161.6944 N.1     1  UNL1       -0.1908
     27 C         139.2452  145.0378  162.6185 C.1     1  UNL1        0.1004
@<TRIPOS>BOND
     1    26    27    3
     2    27    20    1
     3    20    21   ar
     4    21    22   ar
     5    22    23   ar
     6    23    19    1
     7     1    19    1
     8     1     2    1
     9     2     3    1
    10     3     4    1
    11     4     5    1
    12     5     6    2
    13     5     7    1
    14     7     8    1
    15     8     9    1
    16     9    10    1
    17    10    11    1
    18    11    12    1
    19    12    13    1
    20    13    14    1
    21    14    15    1
    22    14    16    1
    23    23    24   ar
    24    24    25   ar
    25    25    20   ar
    26     9     1    1
    27    16    10    1
    28     7     2    1
    29    15    17    1
    30    15    18    1
@<TRIPOS>MOLECULE
*****
 27 30 0 0 0
SMALL
GASTEIGER

@<TRIPOS>ATOM
      1 C         141.8234  141.3170  167.0184 C.3     1  UNL1        0.1806
      2 C         142.0378  141.7231  168.4464 C.3     1  UNL1        0.0488
      3 C         142.8562  142.5973  169.3496 C.3     1  UNL1        0.0118
      4 C         142.3847  142.3800  170.7569 C.3     1  UNL1        0.0646
      5 C         141.2748  141.3715  170.7234 C.2     1  UNL1        0.1504
      6 O         140.5132  140.8590  171.9097 O.2     1  UNL1       -0.2961
      7 C         141.0604  140.9654  169.2954 C.3     1  UNL1        0.0626
      8 C         140.2420  140.0912  168.3922 C.3     1  UNL1        0.0271
      9 C         140.7135  140.3084  166.9848 C.3     1  UNL1        0.0982
     10 N         140.1706  139.6354  165.7593 N.3     1  UNL1       -0.2697
     11 C         138.8384  140.0465  165.2057 C.3     1  UNL1        0.0722
     12 C         138.2955  139.3734  163.9801 C.3     1  UNL1        0.0187
     13 C         139.0846  138.2891  163.3081 C.3     1  UNL1        0.0183
     14 C         140.4167  137.8779  163.8616 C.3     1  UNL1        0.0670
     15 N         141.2058  136.7937  163.1896 N.3     1  UNL1       -0.3211
     16 C         140.9597  138.5511  165.0873 C.3     1  UNL1        0.0878
     17 H         140.6906  136.4509  162.3787 H       1  UNL1        0.1189
     18 H         141.3571  136.0270  163.8452 H       1  UNL1        0.1189
     19 O         142.5850  141.8295  165.8321 O.3     1  UNL1       -0.4778
     20 C         140.6798  144.8115  163.0522 C.ar    1  UNL1        0.0686
     21 C         142.0789  144.3350  162.7962 C.ar    1  UNL1        0.0134
     22 C         142.7140  143.3410  163.7229 C.ar    1  UNL1        0.0376
     23 C         141.9500  142.8235  164.9055 C.ar    1  UNL1        0.1385
     24 C         140.5508  143.3000  165.1614 C.ar    1  UNL1        0.0376
     25 C         139.9157  144.2940  164.2348 C.ar    1  UNL1        0.0134
     26 N         139.4097  146.7994  161.1989 N.1     1  UNL1       -0.1908
     27 C         140.0447  145.8054  162.1255 C.1     1  UNL1        0.1004
@<TRIPOS>BOND
     1    26    27    3
     2    27    20    1
     3    20    21   ar
     4    21    22   ar
     5    22    23   ar
     6    23    19    1
     7     1    19    1
     8     1     2    1
     9     2     3    1
    10     3     4    1
    11     4     5    1
    12     5     6    2
    13     5     7    1
    14     7     8    1
    15     8     9    1
    16     9    10    1
    17    10    11    1
    18    11    12    1
    19    12    13    1
    20    13    14    1
    21    14    15    1
    22    14    16    1
    23    23    24   ar
    24    24    25   ar
    25    25    20   ar
    26     9     1    1
    27    16    10    1
    28     7     2    1
    29    15    17    1
    30    15    18    1
@<TRIPOS>MOLECULE
*****
 27 30 0 0 0
SMALL
GASTEIGER

@<TRIPOS>ATOM
      1 C         140.7677  139.3398  163.9081 C.3     1  UNL1        0.1806
      2 C         139.6128  138.8755  163.0710 C.3     1  UNL1        0.0488
      3 C         138.5689  137.8078  162.9289 C.3     1  UNL1        0.0118
      4 C         137.7443  138.1243  161.7165 C.3     1  UNL1        0.0646
      5 C         138.2786  139.3876  161.1093 C.2     1  UNL1        0.1504
      6 O         137.7507  140.0672  159.8807 O.2     1  UNL1       -0.2961
      7 C         139.4334  139.8519  161.9464 C.3     1  UNL1        0.0626
      8 C         140.4773  140.9196  162.0885 C.3     1  UNL1        0.0271
      9 C         141.3020  140.6032  163.3010 C.3     1  UNL1        0.0982
     10 N         142.4579  141.4086  163.8157 N.3     1  UNL1       -0.2697
     11 C         142.2421  142.4216  164.9008 C.3     1  UNL1        0.0722
     12 C         143.3980  143.2270  165.4156 C.3     1  UNL1        0.0187
     13 C         144.7699  143.0194  164.8454 C.3     1  UNL1        0.0183
     14 C         144.9857  142.0064  163.7604 C.3     1  UNL1        0.0670
     15 N         146.3575  141.7989  163.1902 N.3     1  UNL1       -0.3211
     16 C         143.8297  141.2010  163.2456 C.3     1  UNL1        0.0878
     17 H         147.0164  142.4249  163.6532 H       1  UNL1        0.1189
     18 H         146.3439  141.9988  162.1901 H       1  UNL1        0.1189
     19 O         141.2956  138.6602  165.1367 O.3     1  UNL1       -0.4778
     20 C         140.9266  140.6625  169.1498 C.ar    1  UNL1        0.0686
     21 C         139.7089  140.4609  168.2975 C.ar    1  UNL1        0.0134
     22 C         139.8319  139.7934  166.9597 C.ar    1  UNL1        0.0376
     23 C         141.1726  139.3276  166.4744 C.ar    1  UNL1        0.1385
     24 C         142.3903  139.5293  167.3268 C.ar    1  UNL1        0.0376
     25 C         142.2673  140.1967  168.6644 C.ar    1  UNL1        0.0134
     26 N         140.6806  141.9973  171.8251 N.1     1  UNL1       -0.1908
     27 C         140.8036  141.3299  170.4875 C.1     1  UNL1        0.1004
@<TRIPOS>BOND
     1    26    27    3
     2    27    20    1
     3    20    21   ar
     4    21    22   ar
     5    22    23   ar
     6    23    19    1
     7     1    19    1
     8     1     2    1
     9     2     3    1
    10     3     4    1
    11     4     5    1
    12     5     6    2
    13     5     7    1
    14     7     8    1
    15     8     9    1
    16     9    10    1
    17    10    11    1
    18    11    12    1
    19    12    13    1
    20    13    14    1
    21    14    15    1
    22    14    16    1
    23    23    24   ar
    24    24    25   ar
    25    25    20   ar
    26     9     1    1
    27    16    10    1
    28     7     2    1
    29    15    17    1
    30    15    18    1
@<TRIPOS>MOLECULE
*****
 27 30 0 0 0
SMALL
GASTEIGER

@<TRIPOS>ATOM
      1 C         140.9177  140.8653  166.9856 C.3     1  UNL1        0.1806
      2 C         140.3925  140.6547  168.3748 C.3     1  UNL1        0.0488
      3 C         139.1669  140.3156  169.1703 C.3     1  UNL1        0.0118
      4 C         139.5427  140.3141  170.6225 C.3     1  UNL1        0.0646
      5 C         141.0005  140.6523  170.7244 C.2     1  UNL1        0.1504
      6 O         141.7938  140.7609  171.9929 O.2     1  UNL1       -0.2961
      7 C         141.5257  140.8629  169.3353 C.3     1  UNL1        0.0626
      8 C         142.7513  141.2020  168.5397 C.3     1  UNL1        0.0271
      9 C         142.3755  141.2036  167.0875 C.3     1  UNL1        0.0982
     10 N         143.2959  141.4926  165.9390 N.3     1  UNL1       -0.2697
     11 C         143.8809  142.8639  165.7732 C.3     1  UNL1        0.0722
     12 C         144.8013  143.1529  164.6247 C.3     1  UNL1        0.0187
     13 C         145.1368  142.0706  163.6417 C.3     1  UNL1        0.0183
     14 C         144.5519  140.6993  163.8074 C.3     1  UNL1        0.0670
     15 N         144.8875  139.6170  162.8245 N.3     1  UNL1       -0.3211
     16 C         143.6315  140.4103  164.9560 C.3     1  UNL1        0.0878
     17 H         145.5207  139.9863  162.1152 H       1  UNL1        0.1189
     18 H         144.0322  139.2864  162.3777 H       1  UNL1        0.1189
     19 O         140.1244  140.7567  165.7172 O.3     1  UNL1       -0.4778
     20 C         139.6895  144.3341  163.0221 C.ar    1  UNL1        0.0686
     21 C         139.5181  144.4866  164.5045 C.ar    1  UNL1        0.0134
     22 C         139.6630  143.2941  165.4029 C.ar    1  UNL1        0.0376
     23 C         139.9794  141.9491  164.8189 C.ar    1  UNL1        0.1385
     24 C         140.1509  141.7967  163.3364 C.ar    1  UNL1        0.0376
     25 C         140.0059  142.9891  162.4381 C.ar    1  UNL1        0.0134
     26 N         139.3995  146.7190  161.2255 N.1     1  UNL1       -0.1908
     27 C         139.5445  145.5265  162.1238 C.1     1  UNL1        0.1004
@<TRIPOS>BOND
     1    26    27    3
     2    27    20    1
     3    20    21   ar
     4    21    22   ar
     5    22    23   ar
     6    23    19    1
     7     1    19    1
     8     1     2    1
     9     2     3    1
    10     3     4    1
    11     4     5    1
    12     5     6    2
    13     5     7    1
    14     7     8    1
    15     8     9    1
    16     9    10    1
    17    10    11    1
    18    11    12    1
    19    12    13    1
    20    13    14    1
    21    14    15    1
    22    14    16    1
    23    23    24   ar
    24    24    25   ar
    25    25    20   ar
    26     9     1    1
    27    16    10    1
    28     7     2    1
    29    15    17    1
    30    15    18    1
@<TRIPOS>MOLECULE
*****
 27 30 0 0 0
SMALL
GASTEIGER

@<TRIPOS>ATOM
      1 C         140.0657  141.8194  163.9143 C.3     1  UNL1        0.1806
      2 C         139.1849  142.9627  163.5056 C.3     1  UNL1        0.0488
      3 C         137.8483  143.6054  163.7303 C.3     1  UNL1        0.0118
      4 C         137.7596  144.8126  162.8444 C.3     1  UNL1        0.0646
      5 C         139.0415  144.9160  162.0722 C.2     1  UNL1        0.1504
      6 O         139.3825  145.9765  161.0678 O.2     1  UNL1       -0.2961
      7 C         139.9223  143.7727  162.4809 C.3     1  UNL1        0.0626
      8 C         141.2589  143.1301  162.2562 C.3     1  UNL1        0.0271
      9 C         141.3476  141.9228  163.1421 C.3     1  UNL1        0.0982
     10 N         142.5133  140.9840  163.2389 N.3     1  UNL1       -0.2697
     11 C         143.2634  140.8501  164.5310 C.3     1  UNL1        0.0722
     12 C         144.4291  139.9112  164.6277 C.3     1  UNL1        0.0187
     13 C         144.8449  139.1061  163.4323 C.3     1  UNL1        0.0183
     14 C         144.0949  139.2399  162.1402 C.3     1  UNL1        0.0670
     15 N         144.5107  138.4348  160.9448 N.3     1  UNL1       -0.3211
     16 C         142.9291  140.1789  162.0435 C.3     1  UNL1        0.0878
     17 H         145.3141  137.8552  161.1880 H       1  UNL1        0.1189
     18 H         144.7634  139.0636  160.1825 H       1  UNL1        0.1189
     19 O         139.7247  140.7589  164.9187 O.3     1  UNL1       -0.4778
     20 C         140.1755  141.5974  169.3169 C.ar    1  UNL1        0.0686
     21 C         139.6134  140.2848  168.8574 C.ar    1  UNL1        0.0134
     22 C         139.4631  140.0053  167.3913 C.ar    1  UNL1        0.0376
     23 C         139.8749  141.0384  166.3848 C.ar    1  UNL1        0.1385
     24 C         140.4370  142.3510  166.8444 C.ar    1  UNL1        0.0376
     25 C         140.5873  142.6305  168.3104 C.ar    1  UNL1        0.0134
     26 N         140.4760  142.1563  172.2490 N.1     1  UNL1       -0.1908
     27 C         140.3257  141.8769  170.7830 C.1     1  UNL1        0.1004
@<TRIPOS>BOND
     1    26    27    3
     2    27    20    1
     3    20    21   ar
     4    21    22   ar
     5    22    23   ar
     6    23    19    1
     7     1    19    1
     8     1     2    1
     9     2     3    1
    10     3     4    1
    11     4     5    1
    12     5     6    2
    13     5     7    1
    14     7     8    1
    15     8     9    1
    16     9    10    1
    17    10    11    1
    18    11    12    1
    19    12    13    1
    20    13    14    1
    21    14    15    1
    22    14    16    1
    23    23    24   ar
    24    24    25   ar
    25    25    20   ar
    26     9     1    1
    27    16    10    1
    28     7     2    1
    29    15    17    1
    30    15    18    1
@<TRIPOS>MOLECULE
*****
 27 30 0 0 0
SMALL
GASTEIGER

@<TRIPOS>ATOM
      1 C         141.1211  140.6090  166.8891 C.3     1  UNL1        0.1806
      2 C         141.7191  140.3872  168.2468 C.3     1  UNL1        0.0488
      3 C         142.6062  139.4819  169.0489 C.3     1  UNL1        0.0118
      4 C         142.6865  140.0284  170.4435 C.3     1  UNL1        0.0646
      5 C         141.8490  141.2714  170.5033 C.2     1  UNL1        0.1504
      6 O         141.6452  142.1401  171.7091 O.2     1  UNL1       -0.2961
      7 C         141.2511  141.4932  169.1456 C.3     1  UNL1        0.0626
      8 C         140.3640  142.3985  168.3435 C.3     1  UNL1        0.0271
      9 C         140.2836  141.8520  166.9488 C.3     1  UNL1        0.0982
     10 N         139.5029  142.4446  165.8134 N.3     1  UNL1       -0.2697
     11 C         139.6866  143.8882  165.4496 C.3     1  UNL1        0.0722
     12 C         138.9059  144.4807  164.3142 C.3     1  UNL1        0.0187
     13 C         137.9415  143.6296  163.5423 C.3     1  UNL1        0.0183
     14 C         137.7578  142.1860  163.9060 C.3     1  UNL1        0.0670
     15 N         136.7934  141.3350  163.1342 N.3     1  UNL1       -0.3211
     16 C         138.5386  141.5935  165.0415 C.3     1  UNL1        0.0878
     17 H         136.3538  141.8958  162.4043 H       1  UNL1        0.1189
     18 H         136.0768  140.9758  163.7649 H       1  UNL1        0.1189
     19 O         141.3249  139.7403  165.6833 O.3     1  UNL1       -0.4778
     20 C         143.3515  141.4059  162.0270 C.ar    1  UNL1        0.0686
     21 C         142.2101  140.4440  161.8792 C.ar    1  UNL1        0.0134
     22 C         141.5345  139.8888  163.0980 C.ar    1  UNL1        0.0376
     23 C         142.0004  140.2955  164.4646 C.ar    1  UNL1        0.1385
     24 C         143.1420  141.2574  164.6123 C.ar    1  UNL1        0.0376
     25 C         143.8175  141.8126  163.3935 C.ar    1  UNL1        0.0134
     26 N         144.7026  142.5162  159.5894 N.1     1  UNL1       -0.1908
     27 C         144.0270  141.9611  160.8082 C.1     1  UNL1        0.1004
@<TRIPOS>BOND
     1    26    27    3
     2    27    20    1
     3    20    21   ar
     4    21    22   ar
     5    22    23   ar
     6    23    19    1
     7     1    19    1
     8     1     2    1
     9     2     3    1
    10     3     4    1
    11     4     5    1
    12     5     6    2
    13     5     7    1
    14     7     8    1
    15     8     9    1
    16     9    10    1
    17    10    11    1
    18    11    12    1
    19    12    13    1
    20    13    14    1
    21    14    15    1
    22    14    16    1
    23    23    24   ar
    24    24    25   ar
    25    25    20   ar
    26     9     1    1
    27    16    10    1
    28     7     2    1
    29    15    17    1
    30    15    18    1
