@<TRIPOS>MOLECULE
*****
 38 43 0 0 0
SMALL
GASTEIGER

@<TRIPOS>ATOM
      1 C         140.7956  138.0203  164.0097 C.2     1  UNL1        0.2494
      2 O         141.1261  136.5580  163.9607 O.2     1  UNL1       -0.2699
      3 N         140.7922  138.8312  162.7478 N.am    1  UNL1       -0.2660
      4 C         140.4618  140.2935  162.7968 C.3     1  UNL1        0.1160
      5 C         140.4584  141.1043  161.5348 C.3     1  UNL1        0.1197
      6 N         140.7855  140.4529  160.2239 N.am    1  UNL1       -0.2555
      7 C         141.1159  138.9905  160.1749 C.2     1  UNL1        0.2497
      8 O         141.4430  138.3391  158.8639 O.2     1  UNL1       -0.2727
      9 C         141.1193  138.1797  161.4368 C.3     1  UNL1        0.1799
     10 C         139.8145  139.9746  167.9426 C.ar    1  UNL1        0.0536
     11 C         141.2429  139.8525  167.5016 C.ar    1  UNL1        0.0047
     12 C         141.5699  139.2011  166.1906 C.ar    1  UNL1        0.0047
     13 C         140.4685  138.6718  165.3207 C.ar    1  UNL1        0.0536
     14 C         139.0401  138.7939  165.7617 C.ar    1  UNL1        0.0047
     15 C         138.7130  139.4454  167.0727 C.ar    1  UNL1        0.0047
     16 O         138.7514  139.8569  170.3104 O.2     1  UNL1       -0.2699
     17 C         139.4874  140.6261  169.2536 C.2     1  UNL1        0.2490
     18 N         139.8962  142.0467  169.5078 N.am    1  UNL1       -0.2760
     19 C         140.6193  143.0993  168.7209 C.3     1  UNL1        0.0955
     20 C         140.4744  144.0558  169.8673 C.3     1  UNL1        0.0430
     21 C         139.7513  143.0032  170.6542 C.3     1  UNL1        0.0955
     22 C         140.7821  141.2637  158.9620 C.ar    1  UNL1        0.0541
     23 C         141.9945  142.0592  158.5783 C.ar    1  UNL1        0.0180
     24 C         141.9911  142.8701  157.3163 C.ar    1  UNL1        0.0382
     25 C         140.7753  142.8854  156.4381 C.ar    1  UNL1        0.1385
     26 C         139.5628  142.0900  156.8217 C.ar    1  UNL1        0.0382
     27 C         139.5662  141.2791  158.0836 C.ar    1  UNL1        0.0180
     28 O         140.7719  143.6963  155.1761 O.3     1  UNL1       -0.4791
     29 C         140.3500  145.1353  155.2104 C.3     1  UNL1        0.1687
     30 C         140.6457  146.0316  154.0446 C.3     1  UNL1        0.0609
     31 C         140.2239  147.4706  154.0789 C.3     1  UNL1        0.0758
     32 N         139.5063  148.0134  155.2790 N.3     1  UNL1       -0.2737
     33 C         139.2106  147.1172  156.4450 C.3     1  UNL1        0.0758
     34 C         139.6325  145.6781  156.4107 C.3     1  UNL1        0.0609
     35 C         139.0845  149.4525  155.3133 C.3     1  UNL1        0.0575
     36 C         138.2723  150.2977  156.2492 C.3     1  UNL1        0.0160
     37 C         138.4879  151.4876  155.3618 C.3     1  UNL1        0.0028
     38 C         139.3001  150.6425  154.4259 C.3     1  UNL1        0.0160
@<TRIPOS>BOND
     1    16    17    2
     2    17    10    1
     3    10    11   ar
     4    11    12   ar
     5    12    13   ar
     6    13     1    1
     7     1     2    2
     8     1     3   am
     9     3     4    1
    10     4     5    1
    11     5     6    1
    12     6    22    1
    13    22    23   ar
    14    23    24   ar
    15    24    25   ar
    16    25    28    1
    17    28    29    1
    18    29    30    1
    19    30    31    1
    20    31    32    1
    21    32    35    1
    22    35    36    1
    23    36    37    1
    24    37    38    1
    25    32    33    1
    26    33    34    1
    27    25    26   ar
    28    26    27   ar
    29     6     7   am
    30     7     8    2
    31     7     9    1
    32    13    14   ar
    33    14    15   ar
    34    17    18   am
    35    18    19    1
    36    19    20    1
    37    20    21    1
    38    15    10   ar
    39    21    18    1
    40     9     3    1
    41    27    22   ar
    42    34    29    1
    43    38    35    1
@<TRIPOS>MOLECULE
*****
 38 43 0 0 0
SMALL
GASTEIGER

@<TRIPOS>ATOM
      1 C         141.6764  143.6412  163.2330 C.2     1  UNL1        0.2494
      2 O         141.3517  145.0698  162.9113 O.2     1  UNL1       -0.2699
      3 N         141.6772  142.6088  162.1448 N.am    1  UNL1       -0.2660
      4 C         142.0019  141.1802  162.4665 C.3     1  UNL1        0.1160
      5 C         142.0027  140.1478  161.3782 C.3     1  UNL1        0.1197
      6 N         141.6789  140.5442  159.9682 N.am    1  UNL1       -0.2555
      7 C         141.3542  141.9729  159.6465 C.2     1  UNL1        0.2497
      8 O         141.0304  142.3692  158.2365 O.2     1  UNL1       -0.2727
      9 C         141.3534  143.0052  160.7347 C.3     1  UNL1        0.1799
     10 C         142.6478  142.4522  167.4629 C.ar    1  UNL1        0.0536
     11 C         141.2213  142.4780  166.9999 C.ar    1  UNL1        0.0047
     12 C         140.8975  142.8743  165.5900 C.ar    1  UNL1        0.0047
     13 C         142.0002  143.2448  164.6430 C.ar    1  UNL1        0.0536
     14 C         143.4267  143.2191  165.1060 C.ar    1  UNL1        0.0047
     15 C         143.7505  142.8228  166.5160 C.ar    1  UNL1        0.0047
     16 O         143.4349  143.0905  169.8553 O.2     1  UNL1       -0.2699
     17 C         142.9716  142.0559  168.8730 C.2     1  UNL1        0.2490
     18 N         142.8322  140.6249  169.3007 N.am    1  UNL1       -0.2760
     19 C         142.4123  139.3525  168.6264 C.3     1  UNL1        0.0955
     20 C         142.6351  138.6013  169.9055 C.3     1  UNL1        0.0430
     21 C         143.0550  139.8737  170.5797 C.3     1  UNL1        0.0955
     22 C         141.6797  139.5119  158.8800 C.ar    1  UNL1        0.0541
     23 C         142.9403  139.2249  158.1194 C.ar    1  UNL1        0.0180
     24 C         142.9411  138.1925  157.0311 C.ar    1  UNL1        0.0382
     25 C         141.6813  137.4472  156.7035 C.ar    1  UNL1        0.1385
     26 C         140.4207  137.7341  157.4641 C.ar    1  UNL1        0.0382
     27 C         140.4199  138.7665  158.5523 C.ar    1  UNL1        0.0180
     28 O         141.6822  136.4149  155.6153 O.3     1  UNL1       -0.4791
     29 C         142.0507  134.9950  155.9286 C.3     1  UNL1        0.1687
     30 C         143.0827  134.7020  156.9770 C.3     1  UNL1        0.0609
     31 C         143.4513  133.2821  157.2904 C.3     1  UNL1        0.0758
     32 N         142.7879  132.1553  156.5554 N.3     1  UNL1       -0.2737
     33 C         141.7558  132.4484  155.5070 C.3     1  UNL1        0.0758
     34 C         141.3872  133.8682  155.1936 C.3     1  UNL1        0.0609
     35 C         143.1564  130.7355  156.8688 C.3     1  UNL1        0.0575
     36 C         142.7553  129.3927  156.3340 C.3     1  UNL1        0.0160
     37 C         143.6776  128.7276  157.3120 C.3     1  UNL1        0.0028
     38 C         144.0789  130.0703  157.8469 C.3     1  UNL1        0.0160
@<TRIPOS>BOND
     1    16    17    2
     2    17    10    1
     3    10    11   ar
     4    11    12   ar
     5    12    13   ar
     6    13     1    1
     7     1     2    2
     8     1     3   am
     9     3     4    1
    10     4     5    1
    11     5     6    1
    12     6    22    1
    13    22    23   ar
    14    23    24   ar
    15    24    25   ar
    16    25    28    1
    17    28    29    1
    18    29    30    1
    19    30    31    1
    20    31    32    1
    21    32    35    1
    22    35    36    1
    23    36    37    1
    24    37    38    1
    25    32    33    1
    26    33    34    1
    27    25    26   ar
    28    26    27   ar
    29     6     7   am
    30     7     8    2
    31     7     9    1
    32    13    14   ar
    33    14    15   ar
    34    17    18   am
    35    18    19    1
    36    19    20    1
    37    20    21    1
    38    15    10   ar
    39    21    18    1
    40     9     3    1
    41    27    22   ar
    42    34    29    1
    43    38    35    1
@<TRIPOS>MOLECULE
*****
 38 43 0 0 0
SMALL
GASTEIGER

@<TRIPOS>ATOM
      1 C         137.9767  141.0086  163.3051 C.2     1  UNL1        0.2494
      2 O         136.6829  141.7480  163.1334 O.2     1  UNL1       -0.2699
      3 N         138.6519  140.3923  162.1159 N.am    1  UNL1       -0.2660
      4 C         139.9456  139.6529  162.2877 C.3     1  UNL1        0.1160
      5 C         140.6208  139.0366  161.0984 C.3     1  UNL1        0.1197
      6 N         140.0023  139.1598  159.7374 N.am    1  UNL1       -0.2555
      7 C         138.7085  139.8992  159.5657 C.2     1  UNL1        0.2497
      8 O         138.0900  140.0223  158.2047 O.2     1  UNL1       -0.2727
      9 C         138.0333  140.5155  160.7549 C.3     1  UNL1        0.1799
     10 C         139.8322  140.6392  167.3881 C.ar    1  UNL1        0.0536
     11 C         138.9703  139.5342  166.8532 C.ar    1  UNL1        0.0047
     12 C         138.3518  139.6574  165.4923 C.ar    1  UNL1        0.0047
     13 C         138.5952  140.8855  164.6662 C.ar    1  UNL1        0.0536
     14 C         139.4571  141.9905  165.2010 C.ar    1  UNL1        0.0047
     15 C         140.0756  141.8673  166.5620 C.ar    1  UNL1        0.0047
     16 O         139.7633  139.7162  169.8157 O.2     1  UNL1       -0.2699
     17 C         140.4507  140.5161  168.7491 C.2     1  UNL1        0.2490
     18 N         141.7566  141.1928  169.0435 N.am    1  UNL1       -0.2760
     19 C         142.7081  142.0482  168.2605 C.3     1  UNL1        0.0955
     20 C         143.6034  142.1499  169.4598 C.3     1  UNL1        0.0430
     21 C         142.6519  141.2946  170.2427 C.3     1  UNL1        0.0955
     22 C         140.6775  138.5435  158.5482 C.ar    1  UNL1        0.0541
     23 C         139.8874  137.7035  157.5889 C.ar    1  UNL1        0.0180
     24 C         140.5627  137.0872  156.3997 C.ar    1  UNL1        0.0382
     25 C         142.0280  137.3109  156.1698 C.ar    1  UNL1        0.1385
     26 C         142.8181  138.1509  157.1291 C.ar    1  UNL1        0.0382
     27 C         142.1428  138.7672  158.3183 C.ar    1  UNL1        0.0180
     28 O         142.7032  136.6947  154.9805 O.3     1  UNL1       -0.4791
     29 C         142.9170  135.2110  154.9248 C.3     1  UNL1        0.1687
     30 C         142.3305  134.4105  153.8000 C.3     1  UNL1        0.0609
     31 C         142.5443  132.9269  153.7442 C.3     1  UNL1        0.0758
     32 N         143.3446  132.2437  154.8132 N.3     1  UNL1       -0.2737
     33 C         143.9311  133.0442  155.9381 C.3     1  UNL1        0.0758
     34 C         143.7173  134.5279  155.9939 C.3     1  UNL1        0.0609
     35 C         143.5583  130.7601  154.7575 C.3     1  UNL1        0.0575
     36 C         144.7213  129.8672  154.4409 C.3     1  UNL1        0.0160
     37 C         143.8607  128.6619  154.6786 C.3     1  UNL1        0.0028
     38 C         142.6977  129.5547  154.9952 C.3     1  UNL1        0.0160
@<TRIPOS>BOND
     1    16    17    2
     2    17    10    1
     3    10    11   ar
     4    11    12   ar
     5    12    13   ar
     6    13     1    1
     7     1     2    2
     8     1     3   am
     9     3     4    1
    10     4     5    1
    11     5     6    1
    12     6    22    1
    13    22    23   ar
    14    23    24   ar
    15    24    25   ar
    16    25    28    1
    17    28    29    1
    18    29    30    1
    19    30    31    1
    20    31    32    1
    21    32    35    1
    22    35    36    1
    23    36    37    1
    24    37    38    1
    25    32    33    1
    26    33    34    1
    27    25    26   ar
    28    26    27   ar
    29     6     7   am
    30     7     8    2
    31     7     9    1
    32    13    14   ar
    33    14    15   ar
    34    17    18   am
    35    18    19    1
    36    19    20    1
    37    20    21    1
    38    15    10   ar
    39    21    18    1
    40     9     3    1
    41    27    22   ar
    42    34    29    1
    43    38    35    1
@<TRIPOS>MOLECULE
*****
 38 43 0 0 0
SMALL
GASTEIGER

@<TRIPOS>ATOM
      1 C         143.9384  140.7584  163.1790 C.2     1  UNL1        0.2494
      2 O         145.3864  140.9821  162.8578 O.2     1  UNL1       -0.2699
      3 N         142.9107  140.8144  162.0878 N.am    1  UNL1       -0.2660
      4 C         141.4627  140.5907  162.4091 C.3     1  UNL1        0.1160
      5 C         140.4350  140.6467  161.3178 C.3     1  UNL1        0.1197
      6 N         140.8554  140.9264  159.9054 N.am    1  UNL1       -0.2555
      7 C         142.3034  141.1502  159.5841 C.2     1  UNL1        0.2497
      8 O         142.7238  141.4299  158.1717 O.2     1  UNL1       -0.2727
      9 C         143.3311  141.0941  160.6753 C.3     1  UNL1        0.1799
     10 C         142.6775  139.9193  167.4164 C.ar    1  UNL1        0.0536
     11 C         142.7784  141.3347  166.9303 C.ar    1  UNL1        0.0047
     12 C         143.1987  141.6144  165.5179 C.ar    1  UNL1        0.0047
     13 C         143.5181  140.4786  164.5915 C.ar    1  UNL1        0.0536
     14 C         143.4171  139.0632  165.0777 C.ar    1  UNL1        0.0047
     15 C         142.9968  138.7835  166.4901 C.ar    1  UNL1        0.0047
     16 O         143.2329  139.0385  169.7968 O.2     1  UNL1       -0.2699
     17 C         142.2571  139.6395  168.8290 C.2     1  UNL1        0.2490
     18 N         140.8611  139.9608  169.2737 N.am    1  UNL1       -0.2760
     19 C         139.6472  140.5476  168.6163 C.3     1  UNL1        0.0955
     20 C         138.8867  140.4152  169.9025 C.3     1  UNL1        0.0430
     21 C         140.1007  139.8284  170.5598 C.3     1  UNL1        0.0955
     22 C         139.8277  140.9825  158.8142 C.ar    1  UNL1        0.0541
     23 C         139.7152  139.8550  157.8313 C.ar    1  UNL1        0.0180
     24 C         138.6875  139.9110  156.7401 C.ar    1  UNL1        0.0382
     25 C         137.7723  141.0946  156.6318 C.ar    1  UNL1        0.1385
     26 C         137.8849  142.2220  157.6147 C.ar    1  UNL1        0.0382
     27 C         138.9125  142.1660  158.7059 C.ar    1  UNL1        0.0180
     28 O         136.7447  141.1506  155.5406 O.3     1  UNL1       -0.4791
     29 C         135.3031  140.8784  155.8533 C.3     1  UNL1        0.1687
     30 C         134.2242  141.4889  155.0088 C.3     1  UNL1        0.0609
     31 C         132.7827  141.2167  155.3215 C.3     1  UNL1        0.0758
     32 N         132.4199  140.3341  156.4787 N.3     1  UNL1       -0.2737
     33 C         133.4988  139.7236  157.3234 C.3     1  UNL1        0.0758
     34 C         134.9404  139.9957  157.0107 C.3     1  UNL1        0.0609
     35 C         130.9783  140.0620  156.7914 C.3     1  UNL1        0.0575
     36 C         130.2477  139.3472  157.8893 C.3     1  UNL1        0.0160
     37 C         128.9397  139.6771  157.2337 C.3     1  UNL1        0.0028
     38 C         129.6701  140.3919  156.1358 C.3     1  UNL1        0.0160
@<TRIPOS>BOND
     1    16    17    2
     2    17    10    1
     3    10    11   ar
     4    11    12   ar
     5    12    13   ar
     6    13     1    1
     7     1     2    2
     8     1     3   am
     9     3     4    1
    10     4     5    1
    11     5     6    1
    12     6    22    1
    13    22    23   ar
    14    23    24   ar
    15    24    25   ar
    16    25    28    1
    17    28    29    1
    18    29    30    1
    19    30    31    1
    20    31    32    1
    21    32    35    1
    22    35    36    1
    23    36    37    1
    24    37    38    1
    25    32    33    1
    26    33    34    1
    27    25    26   ar
    28    26    27   ar
    29     6     7   am
    30     7     8    2
    31     7     9    1
    32    13    14   ar
    33    14    15   ar
    34    17    18   am
    35    18    19    1
    36    19    20    1
    37    20    21    1
    38    15    10   ar
    39    21    18    1
    40     9     3    1
    41    27    22   ar
    42    34    29    1
    43    38    35    1
@<TRIPOS>MOLECULE
*****
 38 43 0 0 0
SMALL
GASTEIGER

@<TRIPOS>ATOM
      1 C         144.5258  141.5670  163.4560 C.2     1  UNL1        0.2494
      2 O         145.9599  141.1845  163.2388 O.2     1  UNL1       -0.2699
      3 N         143.7340  142.1752  162.3366 N.am    1  UNL1       -0.2660
      4 C         142.3000  142.5578  162.5538 C.3     1  UNL1        0.1160
      5 C         141.5082  143.1660  161.4344 C.3     1  UNL1        0.1197
      6 N         142.1505  143.3917  160.0978 N.am    1  UNL1       -0.2555
      7 C         143.5845  143.0092  159.8806 C.2     1  UNL1        0.2497
      8 O         144.2268  143.2348  158.5440 O.2     1  UNL1       -0.2727
      9 C         144.3763  142.4009  160.9999 C.3     1  UNL1        0.1799
     10 C         142.5992  140.8900  167.4660 C.ar    1  UNL1        0.0536
     11 C         143.1231  142.2485  167.1054 C.ar    1  UNL1        0.0047
     12 C         143.7653  142.4741  165.7688 C.ar    1  UNL1        0.0047
     13 C         143.8836  141.3413  164.7927 C.ar    1  UNL1        0.0536
     14 C         143.3597  139.9828  165.1533 C.ar    1  UNL1        0.0047
     15 C         142.7175  139.7572  166.4899 C.ar    1  UNL1        0.0047
     16 O         142.1478  139.3584  169.5155 O.2     1  UNL1       -0.2699
     17 C         141.9569  140.6643  168.8026 C.2     1  UNL1        0.2490
     18 N         141.1239  141.7445  169.4264 N.am    1  UNL1       -0.2760
     19 C         140.7191  143.1336  169.0308 C.3     1  UNL1        0.0955
     20 C         139.9457  143.2722  170.3086 C.3     1  UNL1        0.0430
     21 C         140.3505  141.8830  170.7042 C.3     1  UNL1        0.0955
     22 C         141.3587  143.9999  158.9784 C.ar    1  UNL1        0.0541
     23 C         140.3622  143.1683  158.2263 C.ar    1  UNL1        0.0180
     24 C         139.5704  143.7766  157.1069 C.ar    1  UNL1        0.0382
     25 C         139.7751  145.2165  156.7395 C.ar    1  UNL1        0.1385
     26 C         140.7715  146.0481  157.4916 C.ar    1  UNL1        0.0382
     27 C         141.5633  145.4398  158.6110 C.ar    1  UNL1        0.0180
     28 O         138.9833  145.8247  155.6201 O.3     1  UNL1       -0.4791
     29 C         139.1128  147.2884  155.3188 C.3     1  UNL1        0.1687
     30 C         139.8840  147.7408  154.1145 C.3     1  UNL1        0.0609
     31 C         140.0135  149.2046  153.8132 C.3     1  UNL1        0.0758
     32 N         139.3718  150.2158  154.7162 N.3     1  UNL1       -0.2737
     33 C         138.6005  149.7634  155.9207 C.3     1  UNL1        0.0758
     34 C         138.4710  148.2997  156.2220 C.3     1  UNL1        0.0609
     35 C         139.5013  151.6795  154.4149 C.3     1  UNL1        0.0575
     36 C         138.6783  152.8993  154.7063 C.3     1  UNL1        0.0160
     37 C         139.6844  153.7495  153.9888 C.3     1  UNL1        0.0028
     38 C         140.5074  152.5298  153.6974 C.3     1  UNL1        0.0160
@<TRIPOS>BOND
     1    16    17    2
     2    17    10    1
     3    10    11   ar
     4    11    12   ar
     5    12    13   ar
     6    13     1    1
     7     1     2    2
     8     1     3   am
     9     3     4    1
    10     4     5    1
    11     5     6    1
    12     6    22    1
    13    22    23   ar
    14    23    24   ar
    15    24    25   ar
    16    25    28    1
    17    28    29    1
    18    29    30    1
    19    30    31    1
    20    31    32    1
    21    32    35    1
    22    35    36    1
    23    36    37    1
    24    37    38    1
    25    32    33    1
    26    33    34    1
    27    25    26   ar
    28    26    27   ar
    29     6     7   am
    30     7     8    2
    31     7     9    1
    32    13    14   ar
    33    14    15   ar
    34    17    18   am
    35    18    19    1
    36    19    20    1
    37    20    21    1
    38    15    10   ar
    39    21    18    1
    40     9     3    1
    41    27    22   ar
    42    34    29    1
    43    38    35    1
@<TRIPOS>MOLECULE
*****
 38 43 0 0 0
SMALL
GASTEIGER

@<TRIPOS>ATOM
      1 C         138.9779  146.0342  155.4869 C.2     1  UNL1        0.2494
      2 O         137.8902  145.2149  154.8579 O.2     1  UNL1       -0.2699
      3 N         139.7965  145.4616  156.6058 N.am    1  UNL1       -0.2660
      4 C         140.8842  146.2809  157.2348 C.3     1  UNL1        0.1160
      5 C         141.7028  145.7083  158.3538 C.3     1  UNL1        0.1197
      6 N         141.4336  144.3164  158.8438 N.am    1  UNL1       -0.2555
      7 C         140.3459  143.4971  158.2148 C.2     1  UNL1        0.2497
      8 O         140.0767  142.1052  158.7048 O.2     1  UNL1       -0.2727
      9 C         139.5273  144.0696  157.0959 C.3     1  UNL1        0.1799
     10 C         139.7854  150.2099  154.0167 C.ar    1  UNL1        0.0536
     11 C         140.3850  149.0345  153.3033 C.ar    1  UNL1        0.0047
     12 C         140.1159  147.6427  153.7933 C.ar    1  UNL1        0.0047
     13 C         139.2471  147.4261  154.9968 C.ar    1  UNL1        0.0536
     14 C         138.6475  148.6015  155.7102 C.ar    1  UNL1        0.0047
     15 C         138.9167  149.9933  155.2202 C.ar    1  UNL1        0.0047
     16 O         138.9722  152.3754  152.8337 O.2     1  UNL1       -0.2699
     17 C         140.0546  151.6018  153.5266 C.2     1  UNL1        0.2490
     18 N         141.4061  152.2201  153.7295 N.am    1  UNL1       -0.2760
     19 C         142.6937  151.7733  154.3558 C.3     1  UNL1        0.0955
     20 C         143.3174  153.0946  154.0163 C.3     1  UNL1        0.0430
     21 C         142.0297  153.5414  153.3900 C.3     1  UNL1        0.0955
     22 C         142.2522  143.7438  159.9627 C.ar    1  UNL1        0.0541
     23 C         143.4685  142.9209  159.6572 C.ar    1  UNL1        0.0180
     24 C         144.2871  142.3483  160.7763 C.ar    1  UNL1        0.0382
     25 C         143.8893  142.5987  162.2007 C.ar    1  UNL1        0.1385
     26 C         142.6730  143.4216  162.5062 C.ar    1  UNL1        0.0382
     27 C         141.8544  143.9942  161.3872 C.ar    1  UNL1        0.0180
     28 O         144.7078  142.0261  163.3196 O.3     1  UNL1       -0.4791
     29 C         144.0396  141.5842  164.5878 C.3     1  UNL1        0.1687
     30 C         143.7535  142.5810  165.6715 C.3     1  UNL1        0.0609
     31 C         143.0852  142.1390  166.9396 C.3     1  UNL1        0.0758
     32 N         142.7031  140.7003  167.1240 N.3     1  UNL1       -0.2737
     33 C         142.9892  139.7034  166.0403 C.3     1  UNL1        0.0758
     34 C         143.6575  140.1454  164.7722 C.3     1  UNL1        0.0609
     35 C         142.0349  140.2584  168.3922 C.3     1  UNL1        0.0575
     36 C         142.5117  139.8056  169.7403 C.3     1  UNL1        0.0160
     37 C         141.0898  139.6335  170.1856 C.3     1  UNL1        0.0028
     38 C         140.6128  140.0863  168.8375 C.3     1  UNL1        0.0160
@<TRIPOS>BOND
     1    16    17    2
     2    17    10    1
     3    10    11   ar
     4    11    12   ar
     5    12    13   ar
     6    13     1    1
     7     1     2    2
     8     1     3   am
     9     3     4    1
    10     4     5    1
    11     5     6    1
    12     6    22    1
    13    22    23   ar
    14    23    24   ar
    15    24    25   ar
    16    25    28    1
    17    28    29    1
    18    29    30    1
    19    30    31    1
    20    31    32    1
    21    32    35    1
    22    35    36    1
    23    36    37    1
    24    37    38    1
    25    32    33    1
    26    33    34    1
    27    25    26   ar
    28    26    27   ar
    29     6     7   am
    30     7     8    2
    31     7     9    1
    32    13    14   ar
    33    14    15   ar
    34    17    18   am
    35    18    19    1
    36    19    20    1
    37    20    21    1
    38    15    10   ar
    39    21    18    1
    40     9     3    1
    41    27    22   ar
    42    34    29    1
    43    38    35    1
@<TRIPOS>MOLECULE
*****
 38 43 0 0 0
SMALL
GASTEIGER

@<TRIPOS>ATOM
      1 C         139.3624  142.7072  154.6558 C.2     1  UNL1        0.2494
      2 O         139.4208  141.9385  153.3690 O.2     1  UNL1       -0.2699
      3 N         139.3071  141.9761  155.9643 N.am    1  UNL1       -0.2660
      4 C         139.2487  142.7448  157.2511 C.3     1  UNL1        0.1160
      5 C         139.1935  142.0135  158.5597 C.3     1  UNL1        0.1197
      6 N         139.1967  140.5137  158.5815 N.am    1  UNL1       -0.2555
      7 C         139.2552  139.7451  157.2947 C.2     1  UNL1        0.2497
      8 O         139.2584  138.2452  157.3165 O.2     1  UNL1       -0.2727
      9 C         139.3104  140.4762  155.9862 C.3     1  UNL1        0.1799
     10 C         139.3527  147.2067  154.5902 C.ar    1  UNL1        0.0536
     11 C         140.6072  146.4545  154.2579 C.ar    1  UNL1        0.0047
     12 C         140.6104  144.9547  154.2797 C.ar    1  UNL1        0.0047
     13 C         139.3591  144.2071  154.6339 C.ar    1  UNL1        0.0536
     14 C         138.1046  144.9593  154.9662 C.ar    1  UNL1        0.0047
     15 C         138.1014  146.4591  154.9443 C.ar    1  UNL1        0.0047
     16 O         139.7578  149.4394  153.3248 O.2     1  UNL1       -0.2699
     17 C         139.3495  148.7066  154.5683 C.2     1  UNL1        0.2490
     18 N         138.9379  149.4736  155.7899 N.am    1  UNL1       -0.2760
     19 C         138.4814  149.1044  157.1702 C.3     1  UNL1        0.0955
     20 C         138.3557  150.5583  157.5175 C.3     1  UNL1        0.0430
     21 C         138.8122  150.9274  156.1371 C.3     1  UNL1        0.0955
     22 C         139.1415  139.7826  159.8900 C.ar    1  UNL1        0.0541
     23 C         140.3474  139.0413  160.3865 C.ar    1  UNL1        0.0180
     24 C         140.2921  138.3102  161.6951 C.ar    1  UNL1        0.0382
     25 C         139.0311  138.3203  162.5072 C.ar    1  UNL1        0.1385
     26 C         137.8252  139.0616  162.0108 C.ar    1  UNL1        0.0382
     27 C         137.8804  139.7928  160.7023 C.ar    1  UNL1        0.0180
     28 O         138.9759  137.5892  163.8158 O.3     1  UNL1       -0.4791
     29 C         139.2108  138.3295  165.0990 C.3     1  UNL1        0.1687
     30 C         138.1347  138.3817  166.1426 C.3     1  UNL1        0.0609
     31 C         138.3697  139.1220  167.4259 C.3     1  UNL1        0.0758
     32 N         139.6808  139.8101  167.6656 N.3     1  UNL1       -0.2737
     33 C         140.7570  139.7579  166.6219 C.3     1  UNL1        0.0758
     34 C         140.5220  139.0176  165.3387 C.3     1  UNL1        0.0609
     35 C         139.9158  140.5504  168.9488 C.3     1  UNL1        0.0575
     36 C         139.8931  140.1852  170.4035 C.3     1  UNL1        0.0160
     37 C         140.2481  141.5973  170.7636 C.3     1  UNL1        0.0028
     38 C         140.2707  141.9626  169.3090 C.3     1  UNL1        0.0160
@<TRIPOS>BOND
     1    16    17    2
     2    17    10    1
     3    10    11   ar
     4    11    12   ar
     5    12    13   ar
     6    13     1    1
     7     1     2    2
     8     1     3   am
     9     3     4    1
    10     4     5    1
    11     5     6    1
    12     6    22    1
    13    22    23   ar
    14    23    24   ar
    15    24    25   ar
    16    25    28    1
    17    28    29    1
    18    29    30    1
    19    30    31    1
    20    31    32    1
    21    32    35    1
    22    35    36    1
    23    36    37    1
    24    37    38    1
    25    32    33    1
    26    33    34    1
    27    25    26   ar
    28    26    27   ar
    29     6     7   am
    30     7     8    2
    31     7     9    1
    32    13    14   ar
    33    14    15   ar
    34    17    18   am
    35    18    19    1
    36    19    20    1
    37    20    21    1
    38    15    10   ar
    39    21    18    1
    40     9     3    1
    41    27    22   ar
    42    34    29    1
    43    38    35    1
@<TRIPOS>MOLECULE
*****
 38 43 0 0 0
SMALL
GASTEIGER

@<TRIPOS>ATOM
      1 C         142.5666  136.8813  155.0462 C.2     1  UNL1        0.2494
      2 O         142.5374  137.3879  153.6347 O.2     1  UNL1       -0.2699
      3 N         142.5976  137.8506  156.1905 N.am    1  UNL1       -0.2660
      4 C         142.6269  137.3440  157.6021 C.3     1  UNL1        0.1160
      5 C         142.6579  138.3134  158.7463 C.3     1  UNL1        0.1197
      6 N         142.6596  139.7894  158.4790 N.am    1  UNL1       -0.2555
      7 C         142.6304  140.2960  157.0675 C.2     1  UNL1        0.2497
      8 O         142.6321  141.7720  156.8002 O.2     1  UNL1       -0.2727
      9 C         142.5994  139.3267  155.9232 C.3     1  UNL1        0.1799
     10 C         142.5613  132.4533  155.8480 C.ar    1  UNL1        0.0536
     11 C         141.2985  133.1391  155.4179 C.ar    1  UNL1        0.0047
     12 C         141.3003  134.6150  155.1507 C.ar    1  UNL1        0.0047
     13 C         142.5649  135.4052  155.3135 C.ar    1  UNL1        0.0536
     14 C         143.8277  134.7194  155.7436 C.ar    1  UNL1        0.0047
     15 C         143.8259  133.2434  156.0108 C.ar    1  UNL1        0.0047
     16 O         141.5877  130.0866  155.3996 O.2     1  UNL1       -0.2699
     17 C         142.5596  130.9772  156.1153 C.2     1  UNL1        0.2490
     18 N         143.5297  130.3919  157.0982 N.am    1  UNL1       -0.2760
     19 C         144.6131  130.9441  157.9764 C.3     1  UNL1        0.0955
     20 C         144.9016  129.5641  158.4883 C.3     1  UNL1        0.0430
     21 C         143.8182  129.0118  157.6102 C.3     1  UNL1        0.0955
     22 C         142.6906  140.7587  159.6233 C.ar    1  UNL1        0.0541
     23 C         141.4110  141.3346  160.1533 C.ar    1  UNL1        0.0180
     24 C         141.4420  142.3039  161.2976 C.ar    1  UNL1        0.0382
     25 C         142.7527  142.6975  161.9119 C.ar    1  UNL1        0.1385
     26 C         144.0323  142.1217  161.3818 C.ar    1  UNL1        0.0382
     27 C         144.0013  141.1523  160.2376 C.ar    1  UNL1        0.0180
     28 O         142.7837  143.6668  163.0561 O.3     1  UNL1       -0.4791
     29 C         142.2040  143.2785  164.3840 C.3     1  UNL1        0.1687
     30 C         143.0500  142.5539  165.3886 C.3     1  UNL1        0.0609
     31 C         142.4703  142.1656  166.7164 C.3     1  UNL1        0.0758
     32 N         141.0447  142.5018  167.0397 N.3     1  UNL1       -0.2737
     33 C         140.1986  143.2265  166.0350 C.3     1  UNL1        0.0758
     34 C         140.7783  143.6148  164.7072 C.3     1  UNL1        0.0609
     35 C         140.4650  142.1135  168.3675 C.3     1  UNL1        0.0575
     36 C         140.3038  142.7942  169.6944 C.3     1  UNL1        0.0160
     37 C         139.6453  141.5643  170.2454 C.3     1  UNL1        0.0028
     38 C         139.8064  140.8835  168.9185 C.3     1  UNL1        0.0160
@<TRIPOS>BOND
     1    16    17    2
     2    17    10    1
     3    10    11   ar
     4    11    12   ar
     5    12    13   ar
     6    13     1    1
     7     1     2    2
     8     1     3   am
     9     3     4    1
    10     4     5    1
    11     5     6    1
    12     6    22    1
    13    22    23   ar
    14    23    24   ar
    15    24    25   ar
    16    25    28    1
    17    28    29    1
    18    29    30    1
    19    30    31    1
    20    31    32    1
    21    32    35    1
    22    35    36    1
    23    36    37    1
    24    37    38    1
    25    32    33    1
    26    33    34    1
    27    25    26   ar
    28    26    27   ar
    29     6     7   am
    30     7     8    2
    31     7     9    1
    32    13    14   ar
    33    14    15   ar
    34    17    18   am
    35    18    19    1
    36    19    20    1
    37    20    21    1
    38    15    10   ar
    39    21    18    1
    40     9     3    1
    41    27    22   ar
    42    34    29    1
    43    38    35    1
@<TRIPOS>MOLECULE
*****
 38 43 0 0 0
SMALL
GASTEIGER

@<TRIPOS>ATOM
      1 C         143.7070  141.0757  160.8335 C.2     1  UNL1        0.2494
      2 O         144.0949  142.4786  160.4711 O.2     1  UNL1       -0.2699
      3 N         143.4380  140.0694  159.7542 N.am    1  UNL1       -0.2660
      4 C         143.0500  138.6665  160.1165 C.3     1  UNL1        0.1160
      5 C         142.7810  137.6602  159.0371 C.3     1  UNL1        0.1197
      6 N         142.9000  138.0568  157.5954 N.am    1  UNL1       -0.2555
      7 C         143.2880  139.4598  157.2331 C.2     1  UNL1        0.2497
      8 O         143.4070  139.8564  155.7914 O.2     1  UNL1       -0.2727
      9 C         143.5570  140.4660  158.3124 C.3     1  UNL1        0.1799
     10 C         143.3502  139.8859  165.1586 C.ar    1  UNL1        0.0536
     11 C         144.6923  139.8853  164.4889 C.ar    1  UNL1        0.0047
     12 C         144.8112  140.2819  163.0472 C.ar    1  UNL1        0.0047
     13 C         143.5880  140.6791  162.2753 C.ar    1  UNL1        0.0536
     14 C         142.2459  140.6798  162.9450 C.ar    1  UNL1        0.0047
     15 C         142.1269  140.2832  164.3867 C.ar    1  UNL1        0.0047
     16 O         143.7251  138.1470  167.0522 O.2     1  UNL1       -0.2699
     17 C         143.2312  139.4893  166.6004 C.2     1  UNL1        0.2490
     18 N         142.6183  140.4351  167.5903 N.am    1  UNL1       -0.2760
     19 C         142.0319  141.8138  167.5172 C.3     1  UNL1        0.0955
     20 C         141.7516  141.7726  168.9903 C.3     1  UNL1        0.0430
     21 C         142.3380  140.3939  169.0633 C.3     1  UNL1        0.0955
     22 C         142.6310  137.0506  156.5161 C.ar    1  UNL1        0.0541
     23 C         143.7633  136.2646  155.9244 C.ar    1  UNL1        0.0180
     24 C         143.4943  135.2582  154.8450 C.ar    1  UNL1        0.0382
     25 C         142.0930  135.0379  154.3574 C.ar    1  UNL1        0.1385
     26 C         140.9607  135.8239  154.9491 C.ar    1  UNL1        0.0382
     27 C         141.2297  136.8302  156.0284 C.ar    1  UNL1        0.0180
     28 O         141.8240  134.0316  153.2781 O.3     1  UNL1       -0.4791
     29 C         141.2969  132.6731  153.6337 C.3     1  UNL1        0.1687
     30 C         140.3358  131.9776  152.7159 C.3     1  UNL1        0.0609
     31 C         139.8087  130.6191  153.0715 C.3     1  UNL1        0.0758
     32 N         140.2427  129.9560  154.3451 N.3     1  UNL1       -0.2737
     33 C         141.2039  130.6515  155.2630 C.3     1  UNL1        0.0758
     34 C         141.7310  132.0100  154.9073 C.3     1  UNL1        0.0609
     35 C         139.7156  128.5974  154.7007 C.3     1  UNL1        0.0575
     36 C         139.2897  127.3878  153.9226 C.3     1  UNL1        0.0160
     37 C         138.9701  126.6762  155.2037 C.3     1  UNL1        0.0028
     38 C         139.3960  127.8857  155.9819 C.3     1  UNL1        0.0160
@<TRIPOS>BOND
     1    16    17    2
     2    17    10    1
     3    10    11   ar
     4    11    12   ar
     5    12    13   ar
     6    13     1    1
     7     1     2    2
     8     1     3   am
     9     3     4    1
    10     4     5    1
    11     5     6    1
    12     6    22    1
    13    22    23   ar
    14    23    24   ar
    15    24    25   ar
    16    25    28    1
    17    28    29    1
    18    29    30    1
    19    30    31    1
    20    31    32    1
    21    32    35    1
    22    35    36    1
    23    36    37    1
    24    37    38    1
    25    32    33    1
    26    33    34    1
    27    25    26   ar
    28    26    27   ar
    29     6     7   am
    30     7     8    2
    31     7     9    1
    32    13    14   ar
    33    14    15   ar
    34    17    18   am
    35    18    19    1
    36    19    20    1
    37    20    21    1
    38    15    10   ar
    39    21    18    1
    40     9     3    1
    41    27    22   ar
    42    34    29    1
    43    38    35    1
