@<TRIPOS>MOLECULE
*****
 24 26 0 0 0
SMALL
GASTEIGER

@<TRIPOS>ATOM
      1 C         145.3531  141.7812  163.2540 C.3     1  UNL1        0.0522
      2 C         144.0898  141.4931  164.0099 C.ar    1  UNL1        0.0624
      3 C         144.0760  140.4331  165.0711 C.ar    1  UNL1        0.0332
      4 C         142.8128  140.1450  165.8269 C.ar    1  UNL1        0.1055
      5 N         141.5634  140.9168  165.5215 N.ar    1  UNL1       -0.2260
      6 C         141.5773  141.9768  164.4603 C.ar    1  UNL1        0.1797
      7 N         142.8405  142.2649  163.7045 N.ar    1  UNL1       -0.2296
      8 C         140.3279  142.7488  164.1549 C.ar    1  UNL1        0.1169
      9 C         139.8725  143.8361  165.0824 C.ar    1  UNL1        0.0223
     10 C         138.6231  144.6081  164.7770 C.ar    1  UNL1        0.0032
     11 C         137.8292  144.2926  163.5441 C.ar    1  UNL1        0.0207
     12 C         138.2846  143.2052  162.6166 C.ar    1  UNL1        0.0989
     13 N         139.5339  142.4333  162.9220 N.ar    1  UNL1       -0.2407
     14 C         142.7989  139.0849  166.8881 C.3     1  UNL1        0.2510
     15 O         142.9899  139.4620  168.3274 O.3     1  UNL1       -0.4666
     16 C         142.0216  140.3940  168.9934 C.ar    1  UNL1        0.1688
     17 C         140.6460  139.9154  169.3522 C.ar    1  UNL1        0.0417
     18 C         139.6776  140.8474  170.0182 C.ar    1  UNL1        0.0352
     19 C         140.0848  142.2580  170.3254 C.ar    1  UNL1        0.1698
     20 F         139.1164  143.1900  170.9914 F       1  UNL1       -0.2017
     21 C         141.4603  142.7366  169.9666 C.ar    1  UNL1        0.1976
     22 F         141.8675  144.1472  170.2737 F       1  UNL1       -0.1993
     23 C         142.4287  141.8046  169.3006 C.ar    1  UNL1        0.2033
     24 F         143.8043  142.2833  168.9417 F       1  UNL1       -0.1985
@<TRIPOS>BOND
     1     1     2    1
     2     2     3   ar
     3     3     4   ar
     4     4    14    1
     5    14    15    1
     6    15    16    1
     7    16    17   ar
     8    17    18   ar
     9    18    19   ar
    10    19    20    1
    11    19    21   ar
    12    21    22    1
    13    21    23   ar
    14    23    24    1
    15     4     5   ar
    16     5     6   ar
    17     6     8    1
    18     8     9   ar
    19     9    10   ar
    20    10    11   ar
    21    11    12   ar
    22    12    13   ar
    23     6     7   ar
    24     7     2   ar
    25    23    16   ar
    26    13     8   ar
@<TRIPOS>MOLECULE
*****
 24 26 0 0 0
SMALL
GASTEIGER

@<TRIPOS>ATOM
      1 C         138.4598  145.1819  165.8630 C.3     1  UNL1        0.0522
      2 C         138.9833  144.2257  164.8327 C.ar    1  UNL1        0.0624
      3 C         139.6315  144.7484  163.5850 C.ar    1  UNL1        0.0332
      4 C         140.1550  143.7923  162.5547 C.ar    1  UNL1        0.1055
      5 N         140.0304  142.3133  162.7720 N.ar    1  UNL1       -0.2260
      6 C         139.3823  141.7906  164.0196 C.ar    1  UNL1        0.1797
      7 N         138.8587  142.7468  165.0500 N.ar    1  UNL1       -0.2296
      8 C         139.2577  140.3116  164.2370 C.ar    1  UNL1        0.1169
      9 C         138.6187  139.7888  165.4893 C.ar    1  UNL1        0.0223
     10 C         138.4941  138.3099  165.7066 C.ar    1  UNL1        0.0032
     11 C         139.0085  137.3538  164.6716 C.ar    1  UNL1        0.0207
     12 C         139.6476  137.8766  163.4193 C.ar    1  UNL1        0.0989
     13 N         139.7721  139.3555  163.2020 N.ar    1  UNL1       -0.2407
     14 C         140.8032  144.3150  161.3070 C.3     1  UNL1        0.2510
     15 O         142.2525  144.7013  161.3201 O.3     1  UNL1       -0.4666
     16 C         143.2528  143.8366  162.0285 C.ar    1  UNL1        0.1688
     17 C         143.8716  142.6695  161.3181 C.ar    1  UNL1        0.0417
     18 C         144.8719  141.8048  162.0266 C.ar    1  UNL1        0.0352
     19 C         145.2533  142.1073  163.4454 C.ar    1  UNL1        0.1698
     20 F         146.2535  141.2427  164.1538 F       1  UNL1       -0.2017
     21 C         144.6344  143.2745  164.1558 C.ar    1  UNL1        0.1976
     22 F         145.0157  143.5771  165.5746 F       1  UNL1       -0.1993
     23 C         143.6341  144.1392  163.4474 C.ar    1  UNL1        0.2033
     24 F         143.0152  145.3064  164.1578 F       1  UNL1       -0.1985
@<TRIPOS>BOND
     1     1     2    1
     2     2     3   ar
     3     3     4   ar
     4     4    14    1
     5    14    15    1
     6    15    16    1
     7    16    17   ar
     8    17    18   ar
     9    18    19   ar
    10    19    20    1
    11    19    21   ar
    12    21    22    1
    13    21    23   ar
    14    23    24    1
    15     4     5   ar
    16     5     6   ar
    17     6     8    1
    18     8     9   ar
    19     9    10   ar
    20    10    11   ar
    21    11    12   ar
    22    12    13   ar
    23     6     7   ar
    24     7     2   ar
    25    23    16   ar
    26    13     8   ar
@<TRIPOS>MOLECULE
*****
 24 26 0 0 0
SMALL
GASTEIGER

@<TRIPOS>ATOM
      1 C         144.8764  139.6190  163.7434 C.3     1  UNL1        0.0522
      2 C         143.5545  139.2680  164.3593 C.ar    1  UNL1        0.0624
      3 C         142.5266  138.5264  163.5570 C.ar    1  UNL1        0.0332
      4 C         141.2047  138.1754  164.1729 C.ar    1  UNL1        0.1055
      5 N         140.9106  138.5659  165.5909 N.ar    1  UNL1       -0.2260
      6 C         141.9384  139.3075  166.3932 C.ar    1  UNL1        0.1797
      7 N         143.2603  139.6585  165.7773 N.ar    1  UNL1       -0.2296
      8 C         141.6443  139.6980  167.8113 C.ar    1  UNL1        0.1169
      9 C         140.2655  140.1469  168.1951 C.ar    1  UNL1        0.0223
     10 C         139.9714  140.5375  169.6132 C.ar    1  UNL1        0.0032
     11 C         141.0562  140.4791  170.6475 C.ar    1  UNL1        0.0207
     12 C         142.4351  140.0302  170.2637 C.ar    1  UNL1        0.0989
     13 N         142.7291  139.6397  168.8456 N.ar    1  UNL1       -0.2407
     14 C         140.1768  137.4338  163.3705 C.3     1  UNL1        0.2510
     15 O         138.7594  137.9230  163.3322 O.3     1  UNL1       -0.4666
     16 C         138.4696  139.3574  163.0030 C.ar    1  UNL1        0.1688
     17 C         138.6058  139.8452  161.5911 C.ar    1  UNL1        0.0417
     18 C         138.3160  141.2797  161.2620 C.ar    1  UNL1        0.0352
     19 C         137.8901  142.2264  162.3448 C.ar    1  UNL1        0.1698
     20 F         137.6003  143.6608  162.0156 F       1  UNL1       -0.2017
     21 C         137.7539  141.7386  163.7567 C.ar    1  UNL1        0.1976
     22 F         137.3280  142.6852  164.8395 F       1  UNL1       -0.1993
     23 C         138.0437  140.3041  164.0858 C.ar    1  UNL1        0.2033
     24 F         137.9075  139.8163  165.4977 F       1  UNL1       -0.1985
@<TRIPOS>BOND
     1     1     2    1
     2     2     3   ar
     3     3     4   ar
     4     4    14    1
     5    14    15    1
     6    15    16    1
     7    16    17   ar
     8    17    18   ar
     9    18    19   ar
    10    19    20    1
    11    19    21   ar
    12    21    22    1
    13    21    23   ar
    14    23    24    1
    15     4     5   ar
    16     5     6   ar
    17     6     8    1
    18     8     9   ar
    19     9    10   ar
    20    10    11   ar
    21    11    12   ar
    22    12    13   ar
    23     6     7   ar
    24     7     2   ar
    25    23    16   ar
    26    13     8   ar
@<TRIPOS>MOLECULE
*****
 24 26 0 0 0
SMALL
GASTEIGER

@<TRIPOS>ATOM
      1 C         138.5789  145.1281  162.4973 C.3     1  UNL1        0.0522
      2 C         139.7103  144.6341  163.3492 C.ar    1  UNL1        0.0624
      3 C         141.1095  145.1055  163.0848 C.ar    1  UNL1        0.0332
      4 C         142.2410  144.6116  163.9368 C.ar    1  UNL1        0.1055
      5 N         141.9732  143.6462  165.0532 N.ar    1  UNL1       -0.2260
      6 C         140.5740  143.1748  165.3176 C.ar    1  UNL1        0.1797
      7 N         139.4426  143.6688  164.4656 N.ar    1  UNL1       -0.2296
      8 C         140.3062  142.2094  166.4340 C.ar    1  UNL1        0.1169
      9 C         139.7264  140.8588  166.1347 C.ar    1  UNL1        0.0223
     10 C         139.4586  139.8934  167.2511 C.ar    1  UNL1        0.0032
     11 C         139.7706  140.2787  168.6668 C.ar    1  UNL1        0.0207
     12 C         140.3504  141.6294  168.9661 C.ar    1  UNL1        0.0989
     13 N         140.6182  142.5947  167.8497 N.ar    1  UNL1       -0.2407
     14 C         143.6402  145.0830  163.6723 C.3     1  UNL1        0.2510
     15 O         144.4199  144.5117  162.5253 O.3     1  UNL1       -0.4666
     16 C         144.3853  143.0366  162.2557 C.ar    1  UNL1        0.1688
     17 C         143.8211  142.5233  160.9641 C.ar    1  UNL1        0.0417
     18 C         143.7865  141.0481  160.6945 C.ar    1  UNL1        0.0352
     19 C         144.3160  140.0863  161.7164 C.ar    1  UNL1        0.1698
     20 F         144.2814  138.6111  161.4468 F       1  UNL1       -0.2017
     21 C         144.8802  140.5996  163.0080 C.ar    1  UNL1        0.1976
     22 F         145.4097  139.6378  164.0300 F       1  UNL1       -0.1993
     23 C         144.9148  142.0747  163.2776 C.ar    1  UNL1        0.2033
     24 F         145.4790  142.5880  164.5692 F       1  UNL1       -0.1985
@<TRIPOS>BOND
     1     1     2    1
     2     2     3   ar
     3     3     4   ar
     4     4    14    1
     5    14    15    1
     6    15    16    1
     7    16    17   ar
     8    17    18   ar
     9    18    19   ar
    10    19    20    1
    11    19    21   ar
    12    21    22    1
    13    21    23   ar
    14    23    24    1
    15     4     5   ar
    16     5     6   ar
    17     6     8    1
    18     8     9   ar
    19     9    10   ar
    20    10    11   ar
    21    11    12   ar
    22    12    13   ar
    23     6     7   ar
    24     7     2   ar
    25    23    16   ar
    26    13     8   ar
@<TRIPOS>MOLECULE
*****
 24 26 0 0 0
SMALL
GASTEIGER

@<TRIPOS>ATOM
      1 C         141.0475  137.0240  164.0043 C.3     1  UNL1        0.0522
      2 C         140.2241  138.2174  164.3887 C.ar    1  UNL1        0.0624
      3 C         139.2612  138.8127  163.4047 C.ar    1  UNL1        0.0332
      4 C         138.4378  140.0061  163.7891 C.ar    1  UNL1        0.1055
      5 N         138.5773  140.6042  165.1575 N.ar    1  UNL1       -0.2260
      6 C         139.5403  140.0090  166.1416 C.ar    1  UNL1        0.1797
      7 N         140.3637  138.8155  165.7572 N.ar    1  UNL1       -0.2296
      8 C         139.6798  140.6071  167.5101 C.ar    1  UNL1        0.1169
      9 C         140.3211  141.9525  167.6787 C.ar    1  UNL1        0.0223
     10 C         140.4607  142.5507  169.0473 C.ar    1  UNL1        0.0032
     11 C         139.9589  141.8033  170.2471 C.ar    1  UNL1        0.0207
     12 C         139.3176  140.4578  170.0785 C.ar    1  UNL1        0.0989
     13 N         139.1781  139.8597  168.7100 N.ar    1  UNL1       -0.2407
     14 C         137.4748  140.6013  162.8050 C.3     1  UNL1        0.2510
     15 O         137.2158  142.0788  162.8089 O.3     1  UNL1       -0.4666
     16 C         138.3529  143.0391  162.9956 C.ar    1  UNL1        0.1688
     17 C         138.3853  143.9391  164.1951 C.ar    1  UNL1        0.0417
     18 C         139.5225  144.8994  164.3818 C.ar    1  UNL1        0.0352
     19 C         140.6272  144.9596  163.3689 C.ar    1  UNL1        0.1698
     20 F         141.7643  145.9199  163.5555 F       1  UNL1       -0.2017
     21 C         140.5948  144.0596  162.1693 C.ar    1  UNL1        0.1976
     22 F         141.6994  144.1199  161.1564 F       1  UNL1       -0.1993
     23 C         139.4577  143.0994  161.9826 C.ar    1  UNL1        0.2033
     24 F         139.4253  142.1994  160.7831 F       1  UNL1       -0.1985
@<TRIPOS>BOND
     1     1     2    1
     2     2     3   ar
     3     3     4   ar
     4     4    14    1
     5    14    15    1
     6    15    16    1
     7    16    17   ar
     8    17    18   ar
     9    18    19   ar
    10    19    20    1
    11    19    21   ar
    12    21    22    1
    13    21    23   ar
    14    23    24    1
    15     4     5   ar
    16     5     6   ar
    17     6     8    1
    18     8     9   ar
    19     9    10   ar
    20    10    11   ar
    21    11    12   ar
    22    12    13   ar
    23     6     7   ar
    24     7     2   ar
    25    23    16   ar
    26    13     8   ar
@<TRIPOS>MOLECULE
*****
 24 26 0 0 0
SMALL
GASTEIGER

@<TRIPOS>ATOM
      1 C         141.0388  137.1776  163.0605 C.3     1  UNL1        0.0522
      2 C         141.1629  138.3077  164.0391 C.ar    1  UNL1        0.0624
      3 C         142.1334  138.2099  165.1786 C.ar    1  UNL1        0.0332
      4 C         142.2575  139.3400  166.1571 C.ar    1  UNL1        0.1055
      5 N         141.4111  140.5679  165.9961 N.ar    1  UNL1       -0.2260
      6 C         140.4406  140.6656  164.8566 C.ar    1  UNL1        0.1797
      7 N         140.3165  139.5355  163.8781 N.ar    1  UNL1       -0.2296
      8 C         139.5941  141.8935  164.6956 C.ar    1  UNL1        0.1169
      9 C         138.4798  141.9099  163.6916 C.ar    1  UNL1        0.0223
     10 C         137.6334  143.1378  163.5306 C.ar    1  UNL1        0.0032
     11 C         137.9013  144.3493  164.3736 C.ar    1  UNL1        0.0207
     12 C         139.0157  144.3328  165.3776 C.ar    1  UNL1        0.0989
     13 N         139.8621  143.1050  165.5385 N.ar    1  UNL1       -0.2407
     14 C         143.2281  139.2422  167.2966 C.3     1  UNL1        0.2510
     15 O         142.7229  139.1409  168.7054 O.3     1  UNL1       -0.4666
     16 C         141.8558  140.2262  169.2711 C.ar    1  UNL1        0.1688
     17 C         140.4025  139.9644  169.5345 C.ar    1  UNL1        0.0417
     18 C         139.5354  141.0498  170.1002 C.ar    1  UNL1        0.0352
     19 C         140.1216  142.3970  170.4026 C.ar    1  UNL1        0.1698
     20 F         139.2545  143.4823  170.9683 F       1  UNL1       -0.2017
     21 C         141.5749  142.6588  170.1393 C.ar    1  UNL1        0.1976
     22 F         142.1611  144.0060  170.4416 F       1  UNL1       -0.1993
     23 C         142.4420  141.5735  169.5735 C.ar    1  UNL1        0.2033
     24 F         143.8953  141.8353  169.3102 F       1  UNL1       -0.1985
@<TRIPOS>BOND
     1     1     2    1
     2     2     3   ar
     3     3     4   ar
     4     4    14    1
     5    14    15    1
     6    15    16    1
     7    16    17   ar
     8    17    18   ar
     9    18    19   ar
    10    19    20    1
    11    19    21   ar
    12    21    22    1
    13    21    23   ar
    14    23    24    1
    15     4     5   ar
    16     5     6   ar
    17     6     8    1
    18     8     9   ar
    19     9    10   ar
    20    10    11   ar
    21    11    12   ar
    22    12    13   ar
    23     6     7   ar
    24     7     2   ar
    25    23    16   ar
    26    13     8   ar
@<TRIPOS>MOLECULE
*****
 24 26 0 0 0
SMALL
GASTEIGER

@<TRIPOS>ATOM
      1 C         137.8643  143.0832  163.7886 C.3     1  UNL1        0.0522
      2 C         138.5386  142.0982  164.6968 C.ar    1  UNL1        0.0624
      3 C         138.3418  140.6263  164.4853 C.ar    1  UNL1        0.0332
      4 C         139.0161  139.6412  165.3936 C.ar    1  UNL1        0.1055
      5 N         139.8873  140.1281  166.5134 N.ar    1  UNL1       -0.2260
      6 C         140.0842  141.5999  166.7249 C.ar    1  UNL1        0.1797
      7 N         139.4098  142.5850  165.8166 N.ar    1  UNL1       -0.2296
      8 C         140.9554  142.0868  167.8447 C.ar    1  UNL1        0.1169
      9 C         142.4107  141.7246  167.8746 C.ar    1  UNL1        0.0223
     10 C         143.2820  142.2115  168.9944 C.ar    1  UNL1        0.0032
     11 C         142.6979  143.0606  170.0843 C.ar    1  UNL1        0.0207
     12 C         141.2425  143.4229  170.0543 C.ar    1  UNL1        0.0989
     13 N         140.3713  142.9360  168.9346 N.ar    1  UNL1       -0.2407
     14 C         138.8192  138.1693  165.1820 C.3     1  UNL1        0.2510
     15 O         140.0064  137.2757  164.9765 O.3     1  UNL1       -0.4666
     16 C         141.1093  137.6951  164.0504 C.ar    1  UNL1        0.1688
     17 C         140.9440  137.5386  162.5678 C.ar    1  UNL1        0.0417
     18 C         142.0471  137.9581  161.6418 C.ar    1  UNL1        0.0352
     19 C         143.3153  138.5339  162.1984 C.ar    1  UNL1        0.1698
     20 F         144.4183  138.9533  161.2724 F       1  UNL1       -0.2017
     21 C         143.4806  138.6904  163.6810 C.ar    1  UNL1        0.1976
     22 F         144.7489  139.2662  164.2377 F       1  UNL1       -0.1993
     23 C         142.3777  138.2710  164.6071 C.ar    1  UNL1        0.2033
     24 F         142.5430  138.4275  166.0897 F       1  UNL1       -0.1985
@<TRIPOS>BOND
     1     1     2    1
     2     2     3   ar
     3     3     4   ar
     4     4    14    1
     5    14    15    1
     6    15    16    1
     7    16    17   ar
     8    17    18   ar
     9    18    19   ar
    10    19    20    1
    11    19    21   ar
    12    21    22    1
    13    21    23   ar
    14    23    24    1
    15     4     5   ar
    16     5     6   ar
    17     6     8    1
    18     8     9   ar
    19     9    10   ar
    20    10    11   ar
    21    11    12   ar
    22    12    13   ar
    23     6     7   ar
    24     7     2   ar
    25    23    16   ar
    26    13     8   ar
@<TRIPOS>MOLECULE
*****
 24 26 0 0 0
SMALL
GASTEIGER

@<TRIPOS>ATOM
      1 C         142.9291  139.0096  163.5157 C.3     1  UNL1        0.0522
      2 C         141.5898  139.4466  164.0309 C.ar    1  UNL1        0.0624
      3 C         140.3992  139.4479  163.1185 C.ar    1  UNL1        0.0332
      4 C         139.0600  139.8849  163.6337 C.ar    1  UNL1        0.1055
      5 N         138.9113  140.3206  165.0613 N.ar    1  UNL1       -0.2260
      6 C         140.1019  140.3193  165.9737 C.ar    1  UNL1        0.1797
      7 N         141.4411  139.8823  165.4585 N.ar    1  UNL1       -0.2296
      8 C         139.9533  140.7549  167.4014 C.ar    1  UNL1        0.1169
      9 C         140.5209  142.0698  167.8472 C.ar    1  UNL1        0.0223
     10 C         140.3723  142.5055  169.2749 C.ar    1  UNL1        0.0032
     11 C         139.6560  141.6262  170.2566 C.ar    1  UNL1        0.0207
     12 C         139.0883  140.3113  169.8107 C.ar    1  UNL1        0.0989
     13 N         139.2370  139.8757  168.3831 N.ar    1  UNL1       -0.2407
     14 C         137.8693  139.8862  162.7213 C.3     1  UNL1        0.2510
     15 O         137.2251  141.1833  162.3308 O.3     1  UNL1       -0.4666
     16 C         138.0228  142.4534  162.3528 C.ar    1  UNL1        0.1688
     17 C         138.8246  142.8564  161.1508 C.ar    1  UNL1        0.0417
     18 C         139.6223  144.1266  161.1728 C.ar    1  UNL1        0.0352
     19 C         139.6182  144.9937  162.3968 C.ar    1  UNL1        0.1698
     20 F         140.4159  146.2638  162.4187 F       1  UNL1       -0.2017
     21 C         138.8165  144.5907  163.5988 C.ar    1  UNL1        0.1976
     22 F         138.8124  145.4577  164.8227 F       1  UNL1       -0.1993
     23 C         138.0188  143.3206  163.5768 C.ar    1  UNL1        0.2033
     24 F         137.2170  142.9176  164.7788 F       1  UNL1       -0.1985
@<TRIPOS>BOND
     1     1     2    1
     2     2     3   ar
     3     3     4   ar
     4     4    14    1
     5    14    15    1
     6    15    16    1
     7    16    17   ar
     8    17    18   ar
     9    18    19   ar
    10    19    20    1
    11    19    21   ar
    12    21    22    1
    13    21    23   ar
    14    23    24    1
    15     4     5   ar
    16     5     6   ar
    17     6     8    1
    18     8     9   ar
    19     9    10   ar
    20    10    11   ar
    21    11    12   ar
    22    12    13   ar
    23     6     7   ar
    24     7     2   ar
    25    23    16   ar
    26    13     8   ar
@<TRIPOS>MOLECULE
*****
 24 26 0 0 0
SMALL
GASTEIGER

@<TRIPOS>ATOM
      1 C         142.5227  141.0455  168.3432 C.3     1  UNL1        0.0522
      2 C         141.4317  141.0484  167.3137 C.ar    1  UNL1        0.0624
      3 C         140.4662  139.9028  167.2408 C.ar    1  UNL1        0.0332
      4 C         139.3753  139.9057  166.2113 C.ar    1  UNL1        0.1055
      5 N         139.2497  141.0543  165.2548 N.ar    1  UNL1       -0.2260
      6 C         140.2151  142.1999  165.3278 C.ar    1  UNL1        0.1797
      7 N         141.3061  142.1970  166.3572 N.ar    1  UNL1       -0.2296
      8 C         140.0896  143.3486  164.3712 C.ar    1  UNL1        0.1169
      9 C         141.2949  144.1719  164.0256 C.ar    1  UNL1        0.0223
     10 C         141.1694  145.3206  163.0691 C.ar    1  UNL1        0.0032
     11 C         139.8386  145.6459  162.4582 C.ar    1  UNL1        0.0207
     12 C         138.6333  144.8225  162.8039 C.ar    1  UNL1        0.0989
     13 N         138.7588  143.6739  163.7604 N.ar    1  UNL1       -0.2407
     14 C         138.4098  138.7600  166.1384 C.3     1  UNL1        0.2510
     15 O         138.7331  137.5590  165.2998 O.3     1  UNL1       -0.4666
     16 C         139.3964  137.7324  163.9657 C.ar    1  UNL1        0.1688
     17 C         138.5693  138.0267  162.7495 C.ar    1  UNL1        0.0417
     18 C         139.2327  138.2000  161.4153 C.ar    1  UNL1        0.0352
     19 C         140.7231  138.0792  161.2975 C.ar    1  UNL1        0.1698
     20 F         141.3864  138.2525  159.9633 F       1  UNL1       -0.2017
     21 C         141.5502  137.7849  162.5137 C.ar    1  UNL1        0.1976
     22 F         143.0406  137.6640  162.3959 F       1  UNL1       -0.1993
     23 C         140.8869  137.6115  163.8478 C.ar    1  UNL1        0.2033
     24 F         141.7140  137.3172  165.0641 F       1  UNL1       -0.1985
@<TRIPOS>BOND
     1     1     2    1
     2     2     3   ar
     3     3     4   ar
     4     4    14    1
     5    14    15    1
     6    15    16    1
     7    16    17   ar
     8    17    18   ar
     9    18    19   ar
    10    19    20    1
    11    19    21   ar
    12    21    22    1
    13    21    23   ar
    14    23    24    1
    15     4     5   ar
    16     5     6   ar
    17     6     8    1
    18     8     9   ar
    19     9    10   ar
    20    10    11   ar
    21    11    12   ar
    22    12    13   ar
    23     6     7   ar
    24     7     2   ar
    25    23    16   ar
    26    13     8   ar
