@<TRIPOS>MOLECULE
*****
 33 38 0 0 0
SMALL
GASTEIGER

@<TRIPOS>ATOM
      1 C         143.7138  138.9169  164.6302 C.3     1  UNL1        0.0238
      2 C         142.7242  140.0228  164.4117 C.3     1  UNL1        0.0973
      3 C         142.8235  140.0541  165.9081 C.3     1  UNL1        0.0493
      4 C         142.0181  141.0470  166.6925 C.2     1  UNL1       -0.0045
      5 C         141.1135  142.0087  165.9806 C.2     1  UNL1        0.0689
      6 N         140.4462  142.8682  167.0130 N.2     1  UNL1       -0.2526
      7 C         140.9384  142.4378  168.3630 C.2     1  UNL1        0.0627
      8 C         140.6275  142.9254  169.7470 C.3     1  UNL1        0.0717
      9 C         141.2881  142.2874  170.9330 C.2     1  UNL1       -0.0198
     10 C         142.2596  141.1618  170.7349 C.2     1  UNL1       -0.0042
     11 C         142.5705  140.6742  169.3509 C.2     1  UNL1        0.0006
     12 C         141.9099  141.3122  168.1649 C.2     1  UNL1        0.0111
     13 C         141.0142  141.9774  164.4842 C.3     1  UNL1        0.0948
     14 N         141.8196  140.9845  163.6997 N.3     1  UNL1       -0.2901
     15 H         142.4052  141.5205  163.0594 H       1  UNL1        0.1239
     16 C         142.9687  139.6074  162.9912 C.ar    1  UNL1        0.1301
     17 N         141.9184  139.2211  161.9924 N.ar    1  UNL1       -0.2298
     18 C         142.6069  138.8803  160.7041 C.ar    1  UNL1        0.0996
     19 C         144.0827  139.0560  160.9066 C.ar    1  UNL1        0.0927
     20 N         144.3063  139.5054  162.3201 N.ar    1  UNL1       -0.3386
     21 H         145.1780  139.6993  162.7347 H       1  UNL1        0.1672
     22 C         141.9371  138.4410  159.4359 C.ar    1  UNL1        0.0192
     23 C         140.4749  138.7045  159.2298 C.ar    1  UNL1        0.0015
     24 C         139.8051  138.2652  157.9615 C.ar    1  UNL1        0.0000
     25 C         140.5975  137.5624  156.8994 C.ar    1  UNL1        0.0000
     26 C         142.0597  137.2989  157.1055 C.ar    1  UNL1        0.0000
     27 C         142.7295  137.7382  158.3737 C.ar    1  UNL1        0.0015
     28 C         140.1096  142.9390  163.7722 C.3     1  UNL1        0.0252
     29 C         140.5835  144.3292  163.4678 C.3     1  UNL1        0.0339
     30 C         139.6787  145.2909  162.7558 C.3     1  UNL1        0.1422
     31 O         138.3003  144.8623  162.3483 O.3     1  UNL1       -0.3538
     32 C         137.8264  143.4720  162.6528 C.3     1  UNL1        0.1422
     33 C         138.7310  142.5104  163.3647 C.3     1  UNL1        0.0339
@<TRIPOS>BOND
     1     1     2    1
     2     2    16    1
     3    16    17   ar
     4    17    18   ar
     5    18    22    1
     6    22    23   ar
     7    23    24   ar
     8    24    25   ar
     9    25    26   ar
    10    26    27   ar
    11    18    19   ar
    12    19    20   ar
    13     2     3    1
    14     3     4    1
    15     4     5    2
    16     5     6    1
    17     6     7    2
    18     7     8    1
    19     8     9    1
    20     9    10    2
    21    10    11    1
    22    11    12    2
    23     5    13    1
    24    13    28    1
    25    28    29    1
    26    29    30    1
    27    30    31    1
    28    31    32    1
    29    32    33    1
    30    13    14    1
    31    14     2    1
    32    20    16   ar
    33    12     4    1
    34    33    28    1
    35    27    22   ar
    36    12     7    1
    37    20    21    1
    38    14    15    1
@<TRIPOS>MOLECULE
*****
 33 38 0 0 0
SMALL
GASTEIGER

@<TRIPOS>ATOM
      1 C         139.6337  137.9573  164.8543 C.3     1  UNL1        0.0238
      2 C         139.7990  139.4307  164.6266 C.3     1  UNL1        0.0973
      3 C         139.9206  139.3828  166.1209 C.3     1  UNL1        0.0493
      4 C         140.1454  140.6472  166.8960 C.2     1  UNL1       -0.0045
      5 C         140.2484  141.9595  166.1767 C.2     1  UNL1        0.0689
      6 N         140.4705  143.0330  167.2006 N.2     1  UNL1       -0.2526
      7 C         140.5046  142.3842  168.5526 C.2     1  UNL1        0.0627
      8 C         140.6928  142.9455  169.9308 C.3     1  UNL1        0.0717
      9 C         140.6800  142.0324  171.1207 C.2     1  UNL1       -0.0198
     10 C         140.4790  140.5579  170.9324 C.2     1  UNL1       -0.0042
     11 C         140.2909  139.9965  169.5542 C.2     1  UNL1        0.0006
     12 C         140.3037  140.9096  168.3643 C.2     1  UNL1        0.0111
     13 C         140.1268  142.0073  164.6824 C.3     1  UNL1        0.0948
     14 N         139.9020  140.7429  163.9074 N.3     1  UNL1       -0.2901
     15 H         140.6777  140.6585  163.2504 H       1  UNL1        0.1239
     16 C         139.6199  138.9668  163.2114 C.ar    1  UNL1        0.1301
     17 N         140.5729  139.2059  162.0780 N.ar    1  UNL1       -0.2298
     18 C         139.9984  138.5693  160.8472 C.ar    1  UNL1        0.0996
     19 C         138.6904  137.9367  161.2200 C.ar    1  UNL1        0.0927
     20 N         138.4565  138.1824  162.6811 N.ar    1  UNL1       -0.3386
     21 H         137.6763  137.8816  163.2009 H       1  UNL1        0.1672
     22 C         140.6224  138.5659  159.4832 C.ar    1  UNL1        0.0192
     23 C         142.0940  138.3172  159.3323 C.ar    1  UNL1        0.0015
     24 C         142.7180  138.3138  157.9683 C.ar    1  UNL1        0.0000
     25 C         141.8706  138.5590  156.7551 C.ar    1  UNL1        0.0000
     26 C         140.3990  138.8076  156.9060 C.ar    1  UNL1        0.0000
     27 C         139.7750  138.8111  158.2701 C.ar    1  UNL1        0.0015
     28 C         140.2298  143.3196  163.9632 C.3     1  UNL1        0.0252
     29 C         141.5321  144.0635  163.9430 C.3     1  UNL1        0.0339
     30 C         141.6351  145.3758  163.2237 C.3     1  UNL1        0.1422
     31 O         140.4358  145.9441  162.5247 O.3     1  UNL1       -0.3538
     32 C         139.1334  145.2002  162.5449 C.3     1  UNL1        0.1422
     33 C         139.0304  143.8880  163.2641 C.3     1  UNL1        0.0339
@<TRIPOS>BOND
     1     1     2    1
     2     2    16    1
     3    16    17   ar
     4    17    18   ar
     5    18    22    1
     6    22    23   ar
     7    23    24   ar
     8    24    25   ar
     9    25    26   ar
    10    26    27   ar
    11    18    19   ar
    12    19    20   ar
    13     2     3    1
    14     3     4    1
    15     4     5    2
    16     5     6    1
    17     6     7    2
    18     7     8    1
    19     8     9    1
    20     9    10    2
    21    10    11    1
    22    11    12    2
    23     5    13    1
    24    13    28    1
    25    28    29    1
    26    29    30    1
    27    30    31    1
    28    31    32    1
    29    32    33    1
    30    13    14    1
    31    14     2    1
    32    20    16   ar
    33    12     4    1
    34    33    28    1
    35    27    22   ar
    36    12     7    1
    37    20    21    1
    38    14    15    1
@<TRIPOS>MOLECULE
*****
 33 38 0 0 0
SMALL
GASTEIGER

@<TRIPOS>ATOM
      1 C         139.3839  144.8108  164.9321 C.3     1  UNL1        0.0238
      2 C         140.2173  143.6252  164.5451 C.3     1  UNL1        0.0973
      3 C         140.0376  143.3507  166.0088 C.3     1  UNL1        0.0493
      4 C         140.6533  142.1290  166.6239 C.2     1  UNL1       -0.0045
      5 C         141.4485  141.1817  165.7752 C.2     1  UNL1        0.0689
      6 N         141.9337  140.0674  166.6544 N.2     1  UNL1       -0.2526
      7 C         141.4383  140.3260  168.0464 C.2     1  UNL1        0.0627
      8 C         141.6055  139.5659  169.3287 C.3     1  UNL1        0.0717
      9 C         140.9814  140.0799  170.5920 C.2     1  UNL1       -0.0198
     10 C         140.1901  141.3541  170.5732 C.2     1  UNL1       -0.0042
     11 C         140.0228  142.1142  169.2909 C.2     1  UNL1        0.0006
     12 C         140.6469  141.6001  168.0275 C.2     1  UNL1        0.0111
     13 C         141.6282  141.4562  164.3115 C.3     1  UNL1        0.0948
     14 N         141.0125  142.6780  163.6964 N.3     1  UNL1       -0.2901
     15 H         140.3909  142.3534  162.9558 H       1  UNL1        0.1239
     16 C         140.1074  144.3115  163.2158 C.ar    1  UNL1        0.1301
     17 N         140.1728  143.6472  161.8726 N.ar    1  UNL1       -0.2298
     18 C         140.0187  144.7076  160.8230 C.ar    1  UNL1        0.0996
     19 C         139.8581  146.0274  161.5175 C.ar    1  UNL1        0.0927
     20 N         139.9129  145.7826  162.9964 N.ar    1  UNL1       -0.3386
     21 H         139.8350  146.4672  163.6996 H       1  UNL1        0.1672
     22 C         140.0242  144.4871  159.3393 C.ar    1  UNL1        0.0192
     23 C         140.6214  145.5196  158.4298 C.ar    1  UNL1        0.0015
     24 C         140.6269  145.2991  156.9461 C.ar    1  UNL1        0.0000
     25 C         140.0353  144.0460  156.3719 C.ar    1  UNL1        0.0000
     26 C         139.4381  143.0134  157.2814 C.ar    1  UNL1        0.0000
     27 C         139.4326  143.2340  158.7651 C.ar    1  UNL1        0.0015
     28 C         142.4234  140.5090  163.4628 C.3     1  UNL1        0.0252
     29 C         143.6571  140.9890  162.7575 C.3     1  UNL1        0.0339
     30 C         144.4523  140.0416  161.9088 C.3     1  UNL1        0.1422
     31 O         144.0139  138.6144  161.7655 O.3     1  UNL1       -0.3538
     32 C         142.7801  138.1343  162.4708 C.3     1  UNL1        0.1422
     33 C         141.9850  139.0816  163.3195 C.3     1  UNL1        0.0339
@<TRIPOS>BOND
     1     1     2    1
     2     2    16    1
     3    16    17   ar
     4    17    18   ar
     5    18    22    1
     6    22    23   ar
     7    23    24   ar
     8    24    25   ar
     9    25    26   ar
    10    26    27   ar
    11    18    19   ar
    12    19    20   ar
    13     2     3    1
    14     3     4    1
    15     4     5    2
    16     5     6    1
    17     6     7    2
    18     7     8    1
    19     8     9    1
    20     9    10    2
    21    10    11    1
    22    11    12    2
    23     5    13    1
    24    13    28    1
    25    28    29    1
    26    29    30    1
    27    30    31    1
    28    31    32    1
    29    32    33    1
    30    13    14    1
    31    14     2    1
    32    20    16   ar
    33    12     4    1
    34    33    28    1
    35    27    22   ar
    36    12     7    1
    37    20    21    1
    38    14    15    1
@<TRIPOS>MOLECULE
*****
 33 38 0 0 0
SMALL
GASTEIGER

@<TRIPOS>ATOM
      1 C         139.1118  138.3557  164.9669 C.3     1  UNL1        0.0238
      2 C         140.0502  139.4975  164.7104 C.3     1  UNL1        0.0973
      3 C         140.0099  139.5252  166.2097 C.3     1  UNL1        0.0493
      4 C         140.8088  140.5473  166.9626 C.2     1  UNL1       -0.0045
      5 C         141.6481  141.5417  166.2164 C.2     1  UNL1        0.0689
      6 N         142.3239  142.4255  167.2225 N.2     1  UNL1       -0.2526
      7 C         141.9024  141.9773  168.5905 C.2     1  UNL1        0.0627
      8 C         142.2503  142.4762  169.9616 C.3     1  UNL1        0.0717
      9 C         141.6617  141.8143  171.1722 C.2     1  UNL1       -0.0198
     10 C         140.7254  140.6535  171.0116 C.2     1  UNL1       -0.0042
     11 C         140.3775  140.1546  169.6404 C.2     1  UNL1        0.0006
     12 C         140.9660  140.8165  168.4299 C.2     1  UNL1        0.0111
     13 C         141.6884  141.5140  164.7172 C.3     1  UNL1        0.0948
     14 N         140.8895  140.4919  163.9642 N.3     1  UNL1       -0.2901
     15 H         141.5513  139.9561  163.4027 H       1  UNL1        0.1239
     16 C         139.7646  139.0732  163.3003 C.ar    1  UNL1        0.1301
     17 N         140.7262  139.1303  162.1505 N.ar    1  UNL1       -0.2298
     18 C         140.0232  138.6097  160.9320 C.ar    1  UNL1        0.0996
     19 C         138.6271  138.2309  161.3287 C.ar    1  UNL1        0.0927
     20 N         138.4673  138.5173  162.7924 N.ar    1  UNL1       -0.3386
     21 H         137.6538  138.3669  163.3260 H       1  UNL1        0.1672
     22 C         140.6128  138.4892  159.5580 C.ar    1  UNL1        0.0192
     23 C         139.7206  138.5304  158.3528 C.ar    1  UNL1        0.0015
     24 C         140.3102  138.4099  156.9788 C.ar    1  UNL1        0.0000
     25 C         141.7919  138.2481  156.8099 C.ar    1  UNL1        0.0000
     26 C         142.6840  138.2068  158.0152 C.ar    1  UNL1        0.0000
     27 C         142.0944  138.3274  159.3891 C.ar    1  UNL1        0.0015
     28 C         142.5276  142.5084  163.9709 C.3     1  UNL1        0.0252
     29 C         142.1551  143.9613  163.9805 C.3     1  UNL1        0.0339
     30 C         142.9944  144.9557  163.2342 C.3     1  UNL1        0.1422
     31 O         144.2061  144.4971  162.4784 O.3     1  UNL1       -0.3538
     32 C         144.5786  143.0441  162.4687 C.3     1  UNL1        0.1422
     33 C         143.7394  142.0498  163.2150 C.3     1  UNL1        0.0339
@<TRIPOS>BOND
     1     1     2    1
     2     2    16    1
     3    16    17   ar
     4    17    18   ar
     5    18    22    1
     6    22    23   ar
     7    23    24   ar
     8    24    25   ar
     9    25    26   ar
    10    26    27   ar
    11    18    19   ar
    12    19    20   ar
    13     2     3    1
    14     3     4    1
    15     4     5    2
    16     5     6    1
    17     6     7    2
    18     7     8    1
    19     8     9    1
    20     9    10    2
    21    10    11    1
    22    11    12    2
    23     5    13    1
    24    13    28    1
    25    28    29    1
    26    29    30    1
    27    30    31    1
    28    31    32    1
    29    32    33    1
    30    13    14    1
    31    14     2    1
    32    20    16   ar
    33    12     4    1
    34    33    28    1
    35    27    22   ar
    36    12     7    1
    37    20    21    1
    38    14    15    1
@<TRIPOS>MOLECULE
*****
 33 38 0 0 0
SMALL
GASTEIGER

@<TRIPOS>ATOM
      1 C         144.0504  139.3213  164.7139 C.3     1  UNL1        0.0238
      2 C         142.9940  140.3587  164.4735 C.3     1  UNL1        0.0973
      3 C         143.0076  140.3436  165.9734 C.3     1  UNL1        0.0493
      4 C         142.0875  141.2459  166.7410 C.2     1  UNL1       -0.0045
      5 C         141.1538  142.1635  166.0086 C.2     1  UNL1        0.0689
      6 N         140.3676  142.9342  167.0274 N.2     1  UNL1       -0.2526
      7 C         140.8154  142.4930  168.3893 C.2     1  UNL1        0.0627
      8 C         140.3925  142.9065  169.7678 C.3     1  UNL1        0.0717
      9 C         141.0327  142.2766  170.9692 C.2     1  UNL1       -0.0198
     10 C         142.0957  141.2332  170.7921 C.2     1  UNL1       -0.0042
     11 C         142.5185  140.8197  169.4137 C.2     1  UNL1        0.0006
     12 C         141.8784  141.4496  168.2123 C.2     1  UNL1        0.0111
     13 C         141.1402  142.1786  164.5088 C.3     1  UNL1        0.0948
     14 N         142.0603  141.2763  163.7412 N.3     1  UNL1       -0.2901
     15 H         142.6384  141.8765  163.1531 H       1  UNL1        0.1239
     16 C         143.3472  140.0136  163.0571 C.ar    1  UNL1        0.1301
     17 N         143.2658  140.9372  161.8781 N.ar    1  UNL1       -0.2298
     18 C         143.7122  140.1787  160.6634 C.ar    1  UNL1        0.0996
     19 C         144.0695  138.7862  161.0917 C.ar    1  UNL1        0.0927
     20 N         143.8439  138.6842  162.5712 N.ar    1  UNL1       -0.3386
     21 H         143.9953  137.8851  163.1258 H       1  UNL1        0.1672
     22 C         143.7879  140.7179  159.2657 C.ar    1  UNL1        0.0192
     23 C         143.3385  139.8731  158.1105 C.ar    1  UNL1        0.0015
     24 C         143.4143  140.4124  156.7129 C.ar    1  UNL1        0.0000
     25 C         143.9394  141.7963  156.4703 C.ar    1  UNL1        0.0000
     26 C         144.3888  142.6411  157.6255 C.ar    1  UNL1        0.0000
     27 C         144.3130  142.1019  159.0232 C.ar    1  UNL1        0.0015
     28 C         140.2065  143.0962  163.7764 C.3     1  UNL1        0.0252
     29 C         138.8013  142.6599  163.4852 C.3     1  UNL1        0.0339
     30 C         137.8676  143.5775  162.7529 C.3     1  UNL1        0.1422
     31 O         138.3392  144.9314  162.3118 O.3     1  UNL1       -0.3538
     32 C         139.7445  145.3677  162.6030 C.3     1  UNL1        0.1422
     33 C         140.6781  144.4501  163.3353 C.3     1  UNL1        0.0339
@<TRIPOS>BOND
     1     1     2    1
     2     2    16    1
     3    16    17   ar
     4    17    18   ar
     5    18    22    1
     6    22    23   ar
     7    23    24   ar
     8    24    25   ar
     9    25    26   ar
    10    26    27   ar
    11    18    19   ar
    12    19    20   ar
    13     2     3    1
    14     3     4    1
    15     4     5    2
    16     5     6    1
    17     6     7    2
    18     7     8    1
    19     8     9    1
    20     9    10    2
    21    10    11    1
    22    11    12    2
    23     5    13    1
    24    13    28    1
    25    28    29    1
    26    29    30    1
    27    30    31    1
    28    31    32    1
    29    32    33    1
    30    13    14    1
    31    14     2    1
    32    20    16   ar
    33    12     4    1
    34    33    28    1
    35    27    22   ar
    36    12     7    1
    37    20    21    1
    38    14    15    1
@<TRIPOS>MOLECULE
*****
 33 38 0 0 0
SMALL
GASTEIGER

@<TRIPOS>ATOM
      1 C         141.8556  145.1355  163.9397 C.3     1  UNL1        0.0238
      2 C         141.4512  143.7255  163.6262 C.3     1  UNL1        0.0973
      3 C         141.9355  143.5503  165.0350 C.3     1  UNL1        0.0493
      4 C         141.8958  142.1961  165.6788 C.2     1  UNL1       -0.0045
      5 C         141.3719  141.0170  164.9137 C.2     1  UNL1        0.0689
      6 N         141.4542  139.8129  165.8043 N.2     1  UNL1       -0.2526
      7 C         142.0290  140.2477  167.1198 C.2     1  UNL1        0.0627
      8 C         142.3391  139.4928  168.3783 C.3     1  UNL1        0.0717
      9 C         142.9221  140.2108  169.5592 C.2     1  UNL1       -0.0198
     10 C         143.1950  141.6837  169.4816 C.2     1  UNL1       -0.0042
     11 C         142.8849  142.4386  168.2231 C.2     1  UNL1        0.0006
     12 C         142.3019  141.7206  167.0422 C.2     1  UNL1        0.0111
     13 C         140.8876  141.1922  163.5048 C.3     1  UNL1        0.0948
     14 N         140.9272  142.5465  162.8611 N.3     1  UNL1       -0.2901
     15 H         139.9699  142.7724  162.5913 H       1  UNL1        0.1239
     16 C         141.1073  144.3904  162.3263 C.ar    1  UNL1        0.1301
     17 N         141.7007  144.0678  160.9870 N.ar    1  UNL1       -0.2298
     18 C         141.0699  144.9727  159.9704 C.ar    1  UNL1        0.0996
     19 C         140.0867  145.8545  160.6814 C.ar    1  UNL1        0.0927
     20 N         140.1098  145.4946  162.1374 N.ar    1  UNL1       -0.3386
     21 H         139.5658  145.9102  162.8449 H       1  UNL1        0.1672
     22 C         141.3698  144.9922  158.5008 C.ar    1  UNL1        0.0192
     23 C         142.3689  144.0320  157.9264 C.ar    1  UNL1        0.0015
     24 C         142.6687  144.0516  156.4568 C.ar    1  UNL1        0.0000
     25 C         141.9695  145.0313  155.5616 C.ar    1  UNL1        0.0000
     26 C         140.9704  145.9914  156.1360 C.ar    1  UNL1        0.0000
     27 C         140.6706  145.9719  157.6056 C.ar    1  UNL1        0.0015
     28 C         140.3637  140.0132  162.7397 C.3     1  UNL1        0.0252
     29 C         141.1083  139.5065  161.5403 C.3     1  UNL1        0.0339
     30 C         140.5844  138.3274  160.7752 C.3     1  UNL1        0.1422
     31 O         139.3158  137.6551  161.2096 O.3     1  UNL1       -0.3538
     32 C         138.5712  138.1618  162.4092 C.3     1  UNL1        0.1422
     33 C         139.0951  139.3408  163.1742 C.3     1  UNL1        0.0339
@<TRIPOS>BOND
     1     1     2    1
     2     2    16    1
     3    16    17   ar
     4    17    18   ar
     5    18    22    1
     6    22    23   ar
     7    23    24   ar
     8    24    25   ar
     9    25    26   ar
    10    26    27   ar
    11    18    19   ar
    12    19    20   ar
    13     2     3    1
    14     3     4    1
    15     4     5    2
    16     5     6    1
    17     6     7    2
    18     7     8    1
    19     8     9    1
    20     9    10    2
    21    10    11    1
    22    11    12    2
    23     5    13    1
    24    13    28    1
    25    28    29    1
    26    29    30    1
    27    30    31    1
    28    31    32    1
    29    32    33    1
    30    13    14    1
    31    14     2    1
    32    20    16   ar
    33    12     4    1
    34    33    28    1
    35    27    22   ar
    36    12     7    1
    37    20    21    1
    38    14    15    1
@<TRIPOS>MOLECULE
*****
 33 38 0 0 0
SMALL
GASTEIGER

@<TRIPOS>ATOM
      1 C         140.1998  145.1799  164.1024 C.3     1  UNL1        0.0238
      2 C         140.3662  143.6956  163.9641 C.3     1  UNL1        0.0973
      3 C         140.3200  143.8143  165.4587 C.3     1  UNL1        0.0493
      4 C         140.4362  142.5866  166.3126 C.2     1  UNL1       -0.0045
      5 C         140.5985  141.2401  165.6718 C.2     1  UNL1        0.0689
      6 N         140.6871  140.2150  166.7634 N.2     1  UNL1       -0.2526
      7 C         140.5796  140.9280  168.0787 C.2     1  UNL1        0.0627
      8 C         140.6028  140.4319  169.4941 C.3     1  UNL1        0.0717
      9 C         140.4710  141.4016  170.6309 C.2     1  UNL1       -0.0198
     10 C         140.3159  142.8673  170.3523 C.2     1  UNL1       -0.0042
     11 C         140.2927  143.3634  168.9369 C.2     1  UNL1        0.0006
     12 C         140.4245  142.3937  167.8001 C.2     1  UNL1        0.0111
     13 C         140.6446  141.1213  164.1772 C.3     1  UNL1        0.0948
     14 N         140.5285  142.3491  163.3234 N.3     1  UNL1       -0.2901
     15 H         139.7189  142.2114  162.7183 H       1  UNL1        0.1239
     16 C         140.3545  144.0924  162.5176 C.ar    1  UNL1        0.1301
     17 N         139.7928  143.2837  161.3861 N.ar    1  UNL1       -0.2298
     18 C         139.9937  144.0590  160.1178 C.ar    1  UNL1        0.0996
     19 C         140.6795  145.3469  160.4654 C.ar    1  UNL1        0.0927
     20 N         140.9025  145.3675  161.9486 N.ar    1  UNL1       -0.3386
     21 H         141.3330  146.0910  162.4591 H       1  UNL1        0.1672
     22 C         139.5811  143.6229  158.7431 C.ar    1  UNL1        0.0192
     23 C         138.4261  142.6816  158.5700 C.ar    1  UNL1        0.0015
     24 C         138.0135  142.2455  157.1954 C.ar    1  UNL1        0.0000
     25 C         138.7558  142.7508  155.9938 C.ar    1  UNL1        0.0000
     26 C         139.9108  143.6921  156.1670 C.ar    1  UNL1        0.0000
     27 C         140.3234  144.1282  157.5416 C.ar    1  UNL1        0.0015
     28 C         140.8069  139.7748  163.5365 C.3     1  UNL1        0.0252
     29 C         139.6004  138.9326  163.2450 C.3     1  UNL1        0.0339
     30 C         139.7628  137.5861  162.6042 C.3     1  UNL1        0.1422
     31 O         141.1316  137.0818  162.2549 O.3     1  UNL1       -0.3538
     32 C         142.3381  137.9240  162.5464 C.3     1  UNL1        0.1422
     33 C         142.1758  139.2705  163.1872 C.3     1  UNL1        0.0339
@<TRIPOS>BOND
     1     1     2    1
     2     2    16    1
     3    16    17   ar
     4    17    18   ar
     5    18    22    1
     6    22    23   ar
     7    23    24   ar
     8    24    25   ar
     9    25    26   ar
    10    26    27   ar
    11    18    19   ar
    12    19    20   ar
    13     2     3    1
    14     3     4    1
    15     4     5    2
    16     5     6    1
    17     6     7    2
    18     7     8    1
    19     8     9    1
    20     9    10    2
    21    10    11    1
    22    11    12    2
    23     5    13    1
    24    13    28    1
    25    28    29    1
    26    29    30    1
    27    30    31    1
    28    31    32    1
    29    32    33    1
    30    13    14    1
    31    14     2    1
    32    20    16   ar
    33    12     4    1
    34    33    28    1
    35    27    22   ar
    36    12     7    1
    37    20    21    1
    38    14    15    1
@<TRIPOS>MOLECULE
*****
 33 38 0 0 0
SMALL
GASTEIGER

@<TRIPOS>ATOM
      1 C         137.8212  139.5843  162.0110 C.3     1  UNL1        0.0238
      2 C         138.9022  140.6225  162.0709 C.3     1  UNL1        0.0973
      3 C         138.3489  140.9013  160.7049 C.3     1  UNL1        0.0493
      4 C         138.9383  141.9962  159.8660 C.2     1  UNL1       -0.0045
      5 C         140.0811  142.8123  160.3932 C.2     1  UNL1        0.0689
      6 N         140.4541  143.8188  159.3454 N.2     1  UNL1       -0.2526
      7 C         139.5418  143.6247  158.1706 C.2     1  UNL1        0.0627
      8 C         139.4431  144.3281  156.8495 C.3     1  UNL1        0.0717
      9 C         138.4076  143.9051  155.8502 C.2     1  UNL1       -0.0198
     10 C         137.4708  142.7786  156.1719 C.2     1  UNL1       -0.0042
     11 C         137.5695  142.0752  157.4930 C.2     1  UNL1        0.0006
     12 C         138.6050  142.4982  158.4924 C.2     1  UNL1        0.0111
     13 C         140.6344  142.5335  161.7593 C.3     1  UNL1        0.0948
     14 N         140.0450  141.4386  162.5982 N.3     1  UNL1       -0.2901
     15 H         139.7229  141.8717  163.4636 H       1  UNL1        0.1239
     16 C         139.0801  139.9831  163.4162 C.ar    1  UNL1        0.1301
     17 N         139.8085  140.5770  164.5852 N.ar    1  UNL1       -0.2298
     18 C         139.7394  139.5986  165.7201 C.ar    1  UNL1        0.0996
     19 C         138.9683  138.4000  165.2525 C.ar    1  UNL1        0.0927
     20 N         138.5608  138.6377  163.8286 N.ar    1  UNL1       -0.3386
     21 H         138.0434  138.0191  163.2638 H       1  UNL1        0.1672
     22 C         140.3366  139.7859  167.0832 C.ar    1  UNL1        0.0192
     23 C         141.8258  139.7547  167.2604 C.ar    1  UNL1        0.0015
     24 C         142.4230  139.9420  168.6236 C.ar    1  UNL1        0.0000
     25 C         141.5311  140.1606  169.8096 C.ar    1  UNL1        0.0000
     26 C         140.0419  140.1919  169.6325 C.ar    1  UNL1        0.0000
     27 C         139.4447  140.0045  168.2693 C.ar    1  UNL1        0.0015
     28 C         141.7772  143.3496  162.2865 C.3     1  UNL1        0.0252
     29 C         143.1793  143.0489  161.8467 C.3     1  UNL1        0.0339
     30 C         144.3221  143.8651  162.3739 C.3     1  UNL1        0.1422
     31 O         144.0627  144.9820  163.3410 O.3     1  UNL1       -0.3538
     32 C         142.6605  145.2827  163.7809 C.3     1  UNL1        0.1422
     33 C         141.5179  144.4666  163.2536 C.3     1  UNL1        0.0339
@<TRIPOS>BOND
     1     1     2    1
     2     2    16    1
     3    16    17   ar
     4    17    18   ar
     5    18    22    1
     6    22    23   ar
     7    23    24   ar
     8    24    25   ar
     9    25    26   ar
    10    26    27   ar
    11    18    19   ar
    12    19    20   ar
    13     2     3    1
    14     3     4    1
    15     4     5    2
    16     5     6    1
    17     6     7    2
    18     7     8    1
    19     8     9    1
    20     9    10    2
    21    10    11    1
    22    11    12    2
    23     5    13    1
    24    13    28    1
    25    28    29    1
    26    29    30    1
    27    30    31    1
    28    31    32    1
    29    32    33    1
    30    13    14    1
    31    14     2    1
    32    20    16   ar
    33    12     4    1
    34    33    28    1
    35    27    22   ar
    36    12     7    1
    37    20    21    1
    38    14    15    1
@<TRIPOS>MOLECULE
*****
 33 38 0 0 0
SMALL
GASTEIGER

@<TRIPOS>ATOM
      1 C         144.5431  143.2336  164.6462 C.3     1  UNL1        0.0238
      2 C         143.3362  142.3629  164.4587 C.3     1  UNL1        0.0973
      3 C         143.3174  142.5163  165.9507 C.3     1  UNL1        0.0493
      4 C         142.2438  141.8507  166.7596 C.2     1  UNL1       -0.0045
      5 C         141.1890  141.0316  166.0765 C.2     1  UNL1        0.0689
      6 N         140.2633  140.4973  167.1289 N.2     1  UNL1       -0.2526
      7 C         140.7459  140.9861  168.4624 C.2     1  UNL1        0.0627
      8 C         140.2289  140.7776  169.8549 C.3     1  UNL1        0.0717
      9 C         140.9360  141.4055  171.0192 C.2     1  UNL1       -0.0198
     10 C         142.1600  142.2420  170.7910 C.2     1  UNL1       -0.0042
     11 C         142.6770  142.4505  169.3985 C.2     1  UNL1        0.0006
     12 C         141.9699  141.8225  168.2342 C.2     1  UNL1        0.0111
     13 C         141.2078  140.8782  164.5845 C.3     1  UNL1        0.0948
     14 N         142.2814  141.5438  163.7756 N.3     1  UNL1       -0.2901
     15 H         141.8113  142.1617  163.1141 H       1  UNL1        0.1239
     16 C         143.7742  142.5119  163.0318 C.ar    1  UNL1        0.1301
     17 N         142.8890  142.8478  161.8684 N.ar    1  UNL1       -0.2298
     18 C         143.7420  142.8947  160.6354 C.ar    1  UNL1        0.0996
     19 C         145.1543  142.5877  161.0367 C.ar    1  UNL1        0.0927
     20 N         145.1742  142.3511  162.5178 N.ar    1  UNL1       -0.3386
     21 H         145.9669  142.1293  163.0578 H       1  UNL1        0.1672
     22 C         143.2661  143.1957  159.2451 C.ar    1  UNL1        0.0192
     23 C         143.9956  142.6286  158.0634 C.ar    1  UNL1        0.0015
     24 C         143.5198  142.9296  156.6731 C.ar    1  UNL1        0.0000
     25 C         142.3144  143.7977  156.4643 C.ar    1  UNL1        0.0000
     26 C         141.5849  144.3648  157.6460 C.ar    1  UNL1        0.0000
     27 C         142.0608  144.0638  159.0363 C.ar    1  UNL1        0.0015
     28 C         140.1531  140.0592  163.9014 C.3     1  UNL1        0.0252
     29 C         138.9826  140.7353  163.2512 C.3     1  UNL1        0.0339
     30 C         137.9278  139.9162  162.5681 C.3     1  UNL1        0.1422
     31 O         138.0436  138.4210  162.5352 O.3     1  UNL1       -0.3538
     32 C         139.2141  137.7449  163.1854 C.3     1  UNL1        0.1422
     33 C         140.2688  138.5640  163.8684 C.3     1  UNL1        0.0339
@<TRIPOS>BOND
     1     1     2    1
     2     2    16    1
     3    16    17   ar
     4    17    18   ar
     5    18    22    1
     6    22    23   ar
     7    23    24   ar
     8    24    25   ar
     9    25    26   ar
    10    26    27   ar
    11    18    19   ar
    12    19    20   ar
    13     2     3    1
    14     3     4    1
    15     4     5    2
    16     5     6    1
    17     6     7    2
    18     7     8    1
    19     8     9    1
    20     9    10    2
    21    10    11    1
    22    11    12    2
    23     5    13    1
    24    13    28    1
    25    28    29    1
    26    29    30    1
    27    30    31    1
    28    31    32    1
    29    32    33    1
    30    13    14    1
    31    14     2    1
    32    20    16   ar
    33    12     4    1
    34    33    28    1
    35    27    22   ar
    36    12     7    1
    37    20    21    1
    38    14    15    1
