@<TRIPOS>MOLECULE
*****
 29 34 0 0 0
SMALL
GASTEIGER

@<TRIPOS>ATOM
      1 N         143.9024  142.9044  169.7771 N.pl3   1  UNL1       -0.3133
      2 C         142.5903  142.2213  170.0248 C.2     1  UNL1        0.2770
      3 N         141.7968  141.4442  169.0165 N.2     1  UNL1       -0.2202
      4 C         140.5572  140.9379  169.6927 C.3     1  UNL1        0.1582
      5 C         140.5846  141.4020  171.1188 C.3     1  UNL1        0.2351
      6 O         141.8412  142.1952  171.3240 O.2     1  UNL1       -0.4478
      7 C         140.6670  140.5477  168.2485 C.ar    1  UNL1        0.0357
      8 C         141.8547  140.9830  167.4422 C.ar    1  UNL1        0.0007
      9 C         141.9646  140.5928  165.9980 C.ar    1  UNL1        0.0029
     10 C         140.8867  139.7673  165.3601 C.ar    1  UNL1        0.0032
     11 C         139.6992  139.3319  166.1664 C.ar    1  UNL1        0.0366
     12 C         139.5893  139.7221  167.6105 C.ar    1  UNL1        0.1362
     13 O         138.4017  139.2868  168.4168 O.3     1  UNL1       -0.4792
     14 C         138.2918  139.6770  169.8610 C.3     1  UNL1        0.1725
     15 C         139.3696  140.5025  170.4989 C.3     1  UNL1        0.1174
     16 C         139.4002  140.3937  170.0960 C.3     1  UNL1        0.1502
     17 O         139.3680  140.5081  170.5195 O.3     1  UNL1       -0.3532
     18 C         139.4002  140.3937  170.0960 C.3     1  UNL1        0.1502
     19 H         144.3175  142.8648  168.8853 H       1  UNL1        0.1466
     20 H         144.3487  143.3925  170.5065 H       1  UNL1        0.1466
     21 C         143.1521  141.0281  165.1918 C.ar    1  UNL1        0.0384
     22 C         143.7832  142.3647  165.4476 C.ar    1  UNL1        0.1022
     23 N         144.9708  142.8000  164.6413 N.ar    1  UNL1       -0.2224
     24 C         145.5274  141.8988  163.5792 C.ar    1  UNL1        0.1989
     25 N         144.8964  140.5623  163.3234 N.ar    1  UNL1       -0.2224
     26 C         143.7087  140.1269  164.1297 C.ar    1  UNL1        0.1022
     27 C         137.1042  139.2417  170.6673 C.3     1  UNL1        0.0403
     28 C         135.9283  139.5804  171.5349 C.3     1  UNL1        0.0037
     29 C         136.2229  138.1491  171.1961 C.3     1  UNL1        0.0037
@<TRIPOS>BOND
     1     1     2    1
     2     2     3    2
     3     3     4    1
     4     4     5    1
     5     5     6    1
     6     4     7    1
     7     7     8   ar
     8     8     9   ar
     9     9    21    1
    10    21    22   ar
    11    22    23   ar
    12    23    24   ar
    13    24    25   ar
    14    25    26   ar
    15     9    10   ar
    16    10    11   ar
    17    11    12   ar
    18    12    13    1
    19    13    14    1
    20    14    27    1
    21    27    28    1
    22    28    29    1
    23    14    15    1
    24    15    16    1
    25    16    17    1
    26    17    18    1
    27     6     2    1
    28    12     7   ar
    29    29    27    1
    30    18    15    1
    31    15     4    1
    32    26    21   ar
    33     1    19    1
    34     1    20    1
@<TRIPOS>MOLECULE
*****
 29 34 0 0 0
SMALL
GASTEIGER

@<TRIPOS>ATOM
      1 N         140.2614  144.0749  170.0796 N.pl3   1  UNL1       -0.3133
      2 C         140.9346  142.7447  170.2439 C.2     1  UNL1        0.2770
      3 N         141.4229  141.8607  169.1347 N.2     1  UNL1       -0.2202
      4 C         142.0279  140.6344  169.7514 C.3     1  UNL1        0.1582
      5 C         141.9133  140.7605  171.2417 C.3     1  UNL1        0.2351
      6 O         141.2376  142.0647  171.5461 O.2     1  UNL1       -0.4478
      7 C         142.0714  140.6481  168.2521 C.ar    1  UNL1        0.0357
      8 C         141.5029  141.8122  167.4959 C.ar    1  UNL1        0.0007
      9 C         141.5464  141.8258  165.9966 C.ar    1  UNL1        0.0029
     10 C         142.1584  140.6754  165.2535 C.ar    1  UNL1        0.0032
     11 C         142.7268  139.5114  166.0097 C.ar    1  UNL1        0.0366
     12 C         142.6833  139.4977  167.5090 C.ar    1  UNL1        0.1362
     13 O         143.2517  138.3337  168.2653 O.3     1  UNL1       -0.4792
     14 C         143.2082  138.3200  169.7646 C.3     1  UNL1        0.1725
     15 C         142.5963  139.4704  170.5076 C.3     1  UNL1        0.1174
     16 C         142.6084  139.4742  170.0893 C.3     1  UNL1        0.1502
     17 O         142.5956  139.4702  170.5290 O.3     1  UNL1       -0.3532
     18 C         142.6084  139.4742  170.0893 C.3     1  UNL1        0.1502
     19 H         140.1056  144.4399  169.1786 H       1  UNL1        0.1466
     20 H         139.9754  144.5832  170.8728 H       1  UNL1        0.1466
     21 C         140.9780  142.9899  165.2403 C.ar    1  UNL1        0.0384
     22 C         139.5956  143.4827  165.5504 C.ar    1  UNL1        0.1022
     23 N         139.0272  144.6468  164.7942 N.ar    1  UNL1       -0.2224
     24 C         139.8411  145.3180  163.7279 C.ar    1  UNL1        0.1989
     25 N         141.2235  144.8251  163.4178 N.ar    1  UNL1       -0.2224
     26 C         141.7920  143.6611  164.1740 C.ar    1  UNL1        0.1022
     27 C         143.7767  137.1559  170.5208 C.3     1  UNL1        0.0403
     28 C         144.8266  136.0960  170.6768 C.3     1  UNL1        0.0037
     29 C         143.7113  136.1996  171.6745 C.3     1  UNL1        0.0037
@<TRIPOS>BOND
     1     1     2    1
     2     2     3    2
     3     3     4    1
     4     4     5    1
     5     5     6    1
     6     4     7    1
     7     7     8   ar
     8     8     9   ar
     9     9    21    1
    10    21    22   ar
    11    22    23   ar
    12    23    24   ar
    13    24    25   ar
    14    25    26   ar
    15     9    10   ar
    16    10    11   ar
    17    11    12   ar
    18    12    13    1
    19    13    14    1
    20    14    27    1
    21    27    28    1
    22    28    29    1
    23    14    15    1
    24    15    16    1
    25    16    17    1
    26    17    18    1
    27     6     2    1
    28    12     7   ar
    29    29    27    1
    30    18    15    1
    31    15     4    1
    32    26    21   ar
    33     1    19    1
    34     1    20    1
@<TRIPOS>MOLECULE
*****
 29 34 0 0 0
SMALL
GASTEIGER

@<TRIPOS>ATOM
      1 N         137.4048  141.1432  163.5082 N.pl3   1  UNL1       -0.3133
      2 C         138.3243  140.8210  164.6486 C.2     1  UNL1        0.2770
      3 N         139.6840  141.4114  164.8788 N.2     1  UNL1       -0.2202
      4 C         140.2457  140.8070  166.1316 C.3     1  UNL1        0.1582
      5 C         139.2332  139.8432  166.6756 C.3     1  UNL1        0.2351
      6 O         138.0458  139.8518  165.7590 O.2     1  UNL1       -0.4478
      7 C         141.1565  141.7993  165.4714 C.ar    1  UNL1        0.0357
      8 C         140.7282  142.4857  164.2082 C.ar    1  UNL1        0.0007
      9 C         141.6390  143.4780  163.5480 C.ar    1  UNL1        0.0029
     10 C         142.9780  143.7838  164.1509 C.ar    1  UNL1        0.0032
     11 C         143.4063  143.0974  165.4140 C.ar    1  UNL1        0.0366
     12 C         142.4955  142.1051  166.0742 C.ar    1  UNL1        0.1362
     13 O         142.9237  141.4187  167.3373 O.3     1  UNL1       -0.4792
     14 C         142.0129  140.4264  167.9975 C.3     1  UNL1        0.1725
     15 C         140.6739  140.1206  167.3946 C.3     1  UNL1        0.1174
     16 C         140.9280  140.3974  167.2104 C.3     1  UNL1        0.1502
     17 O         140.6609  140.1064  167.4041 O.3     1  UNL1       -0.3532
     18 C         140.9280  140.3974  167.2104 C.3     1  UNL1        0.1502
     19 H         137.6786  141.7968  162.8248 H       1  UNL1        0.1466
     20 H         136.5276  140.7011  163.4432 H       1  UNL1        0.1466
     21 C         141.2108  144.1644  162.2849 C.ar    1  UNL1        0.0384
     22 C         139.9022  144.8961  162.2355 C.ar    1  UNL1        0.1022
     23 N         139.4739  145.5825  160.9724 N.ar    1  UNL1       -0.2224
     24 C         140.3542  145.5374  159.7588 C.ar    1  UNL1        0.1989
     25 N         141.6628  144.8058  159.8082 N.ar    1  UNL1       -0.2224
     26 C         142.0911  144.1193  161.0713 C.ar    1  UNL1        0.1022
     27 C         142.4412  139.7400  169.2606 C.3     1  UNL1        0.0403
     28 C         142.9568  139.8116  170.6675 C.3     1  UNL1        0.0037
     29 C         142.6674  138.4795  170.0416 C.3     1  UNL1        0.0037
@<TRIPOS>BOND
     1     1     2    1
     2     2     3    2
     3     3     4    1
     4     4     5    1
     5     5     6    1
     6     4     7    1
     7     7     8   ar
     8     8     9   ar
     9     9    21    1
    10    21    22   ar
    11    22    23   ar
    12    23    24   ar
    13    24    25   ar
    14    25    26   ar
    15     9    10   ar
    16    10    11   ar
    17    11    12   ar
    18    12    13    1
    19    13    14    1
    20    14    27    1
    21    27    28    1
    22    28    29    1
    23    14    15    1
    24    15    16    1
    25    16    17    1
    26    17    18    1
    27     6     2    1
    28    12     7   ar
    29    29    27    1
    30    18    15    1
    31    15     4    1
    32    26    21   ar
    33     1    19    1
    34     1    20    1
@<TRIPOS>MOLECULE
*****
 29 34 0 0 0
SMALL
GASTEIGER

@<TRIPOS>ATOM
      1 N         138.9032  145.9826  161.8200 N.pl3   1  UNL1       -0.3133
      2 C         138.7730  144.7723  162.6963 C.2     1  UNL1        0.2770
      3 N         138.5812  143.3605  162.2269 N.2     1  UNL1       -0.2202
      4 C         138.5014  142.4767  163.4363 C.3     1  UNL1        0.1582
      5 C         138.6439  143.3423  164.6531 C.3     1  UNL1        0.2351
      6 O         138.8118  144.7610  164.1957 O.2     1  UNL1       -0.4478
      7 C         138.3733  141.7424  162.1346 C.ar    1  UNL1        0.0357
      8 C         138.4343  142.4962  160.8391 C.ar    1  UNL1        0.0007
      9 C         138.3061  141.7620  159.5374 C.ar    1  UNL1        0.0029
     10 C         138.1170  140.2739  159.5312 C.ar    1  UNL1        0.0032
     11 C         138.0561  139.5202  160.8266 C.ar    1  UNL1        0.0366
     12 C         138.1842  140.2545  162.1283 C.ar    1  UNL1        0.1362
     13 O         138.1232  139.5007  163.4237 O.3     1  UNL1       -0.4792
     14 C         138.2513  140.2350  164.7254 C.3     1  UNL1        0.1725
     15 C         138.4404  141.7230  164.7317 C.3     1  UNL1        0.1174
     16 C         138.4047  141.5181  164.3685 C.3     1  UNL1        0.1502
     17 O         138.4423  141.7335  164.7503 O.3     1  UNL1       -0.3532
     18 C         138.4047  141.5181  164.3685 C.3     1  UNL1        0.1502
     19 H         138.8650  145.8879  160.8408 H       1  UNL1        0.1466
     20 H         139.0270  146.8719  162.2241 H       1  UNL1        0.1466
     21 C         138.3671  142.5157  158.2420 C.ar    1  UNL1        0.0384
     22 C         137.3380  142.2657  157.1796 C.ar    1  UNL1        0.1022
     23 N         137.3990  143.0194  155.8842 N.ar    1  UNL1       -0.2224
     24 C         138.4890  144.0231  155.6511 C.ar    1  UNL1        0.1989
     25 N         139.5181  144.2732  156.7134 N.ar    1  UNL1       -0.2224
     26 C         139.4571  143.5194  158.0089 C.ar    1  UNL1        0.1022
     27 C         138.1903  139.4812  166.0209 C.3     1  UNL1        0.0403
     28 C         137.7250  138.2956  166.8133 C.3     1  UNL1        0.0037
     29 C         138.5501  139.3611  167.4722 C.3     1  UNL1        0.0037
@<TRIPOS>BOND
     1     1     2    1
     2     2     3    2
     3     3     4    1
     4     4     5    1
     5     5     6    1
     6     4     7    1
     7     7     8   ar
     8     8     9   ar
     9     9    21    1
    10    21    22   ar
    11    22    23   ar
    12    23    24   ar
    13    24    25   ar
    14    25    26   ar
    15     9    10   ar
    16    10    11   ar
    17    11    12   ar
    18    12    13    1
    19    13    14    1
    20    14    27    1
    21    27    28    1
    22    28    29    1
    23    14    15    1
    24    15    16    1
    25    16    17    1
    26    17    18    1
    27     6     2    1
    28    12     7   ar
    29    29    27    1
    30    18    15    1
    31    15     4    1
    32    26    21   ar
    33     1    19    1
    34     1    20    1
@<TRIPOS>MOLECULE
*****
 29 34 0 0 0
SMALL
GASTEIGER

@<TRIPOS>ATOM
      1 N         139.2354  143.9261  161.0181 N.pl3   1  UNL1       -0.3133
      2 C         139.4153  143.7713  162.4991 C.2     1  UNL1        0.2770
      3 N         140.5519  143.0682  163.1804 N.2     1  UNL1       -0.2202
      4 C         140.3293  143.1546  164.6614 C.3     1  UNL1        0.1582
      5 C         139.0553  143.9111  164.8953 C.3     1  UNL1        0.2351
      6 O         138.4905  144.2922  163.5589 O.2     1  UNL1       -0.4478
      7 C         141.5775  142.4185  164.2740 C.ar    1  UNL1        0.0357
      8 C         141.9313  142.2523  162.8257 C.ar    1  UNL1        0.0007
      9 C         143.1795  141.5162  162.4383 C.ar    1  UNL1        0.0029
     10 C         144.0739  140.9462  163.4991 C.ar    1  UNL1        0.0032
     11 C         143.7202  141.1124  164.9472 C.ar    1  UNL1        0.0366
     12 C         142.4720  141.8486  165.3347 C.ar    1  UNL1        0.1362
     13 O         142.1182  142.0148  166.7828 O.3     1  UNL1       -0.4792
     14 C         140.8700  142.7509  167.1702 C.3     1  UNL1        0.1725
     15 C         139.9756  143.3208  166.1095 C.3     1  UNL1        0.1174
     16 C         140.3238  143.1154  166.0014 C.3     1  UNL1        0.1502
     17 O         139.9577  143.3313  166.1151 O.3     1  UNL1       -0.3532
     18 C         140.3238  143.1154  166.0014 C.3     1  UNL1        0.1502
     19 H         139.9005  143.5470  160.3991 H       1  UNL1        0.1466
     20 H         138.4522  144.4069  160.6650 H       1  UNL1        0.1466
     21 C         143.5333  141.3500  160.9901 C.ar    1  UNL1        0.0384
     22 C         143.7587  142.5579  160.1297 C.ar    1  UNL1        0.1022
     23 N         144.1125  142.3917  158.6816 N.ar    1  UNL1       -0.2224
     24 C         144.2409  141.0177  158.0938 C.ar    1  UNL1        0.1989
     25 N         144.0155  139.8098  158.9541 N.ar    1  UNL1       -0.2224
     26 C         143.6617  139.9760  160.4023 C.ar    1  UNL1        0.1022
     27 C         140.5162  142.9171  168.6185 C.3     1  UNL1        0.0403
     28 C         140.0110  142.3386  169.9070 C.3     1  UNL1        0.0037
     29 C         140.4087  143.7833  169.8383 C.3     1  UNL1        0.0037
@<TRIPOS>BOND
     1     1     2    1
     2     2     3    2
     3     3     4    1
     4     4     5    1
     5     5     6    1
     6     4     7    1
     7     7     8   ar
     8     8     9   ar
     9     9    21    1
    10    21    22   ar
    11    22    23   ar
    12    23    24   ar
    13    24    25   ar
    14    25    26   ar
    15     9    10   ar
    16    10    11   ar
    17    11    12   ar
    18    12    13    1
    19    13    14    1
    20    14    27    1
    21    27    28    1
    22    28    29    1
    23    14    15    1
    24    15    16    1
    25    16    17    1
    26    17    18    1
    27     6     2    1
    28    12     7   ar
    29    29    27    1
    30    18    15    1
    31    15     4    1
    32    26    21   ar
    33     1    19    1
    34     1    20    1
@<TRIPOS>MOLECULE
*****
 29 34 0 0 0
SMALL
GASTEIGER

@<TRIPOS>ATOM
      1 N         141.9826  137.4528  162.5158 N.pl3   1  UNL1       -0.3133
      2 C         142.1593  138.3281  163.7210 C.2     1  UNL1        0.2770
      3 N         142.7454  139.7089  163.7295 N.2     1  UNL1       -0.2202
      4 C         142.7293  140.2106  165.1431 C.3     1  UNL1        0.1582
      5 C         142.1333  139.1399  166.0081 C.3     1  UNL1        0.2351
      6 O         141.7810  137.9764  165.1292 O.2     1  UNL1       -0.4478
      7 C         143.3035  141.1840  164.1567 C.ar    1  UNL1        0.0357
      8 C         143.3845  140.8197  162.7038 C.ar    1  UNL1        0.0007
      9 C         143.9587  141.7931  161.7175 C.ar    1  UNL1        0.0029
     10 C         144.4520  143.1307  162.1841 C.ar    1  UNL1        0.0032
     11 C         144.3711  143.4948  163.6369 C.ar    1  UNL1        0.0366
     12 C         143.7968  142.5215  164.6232 C.ar    1  UNL1        0.1362
     13 O         143.7159  142.8856  166.0761 O.3     1  UNL1       -0.4792
     14 C         143.1416  141.9123  167.0624 C.3     1  UNL1        0.1725
     15 C         142.6484  140.5748  166.5959 C.3     1  UNL1        0.1174
     16 C         142.8086  140.8463  166.3207 C.3     1  UNL1        0.1502
     17 O         142.6402  140.5609  166.6100 O.3     1  UNL1       -0.3532
     18 C         142.8086  140.8463  166.3207 C.3     1  UNL1        0.1502
     19 H         142.2633  137.7741  161.6286 H       1  UNL1        0.1466
     20 H         141.5858  136.5569  162.6120 H       1  UNL1        0.1466
     21 C         144.0397  141.4289  160.2646 C.ar    1  UNL1        0.0384
     22 C         143.7578  140.0220  159.8272 C.ar    1  UNL1        0.1022
     23 N         143.8388  139.6579  158.3744 N.ar    1  UNL1       -0.2224
     24 C         144.2016  140.7005  157.3589 C.ar    1  UNL1        0.1989
     25 N         144.4834  142.1074  157.7963 N.ar    1  UNL1       -0.2224
     26 C         144.4025  142.4716  159.2492 C.ar    1  UNL1        0.1022
     27 C         143.0607  142.2765  168.5153 C.3     1  UNL1        0.0403
     28 C         142.3057  142.8775  169.6638 C.3     1  UNL1        0.0037
     29 C         143.6754  142.3065  169.8832 C.3     1  UNL1        0.0037
@<TRIPOS>BOND
     1     1     2    1
     2     2     3    2
     3     3     4    1
     4     4     5    1
     5     5     6    1
     6     4     7    1
     7     7     8   ar
     8     8     9   ar
     9     9    21    1
    10    21    22   ar
    11    22    23   ar
    12    23    24   ar
    13    24    25   ar
    14    25    26   ar
    15     9    10   ar
    16    10    11   ar
    17    11    12   ar
    18    12    13    1
    19    13    14    1
    20    14    27    1
    21    27    28    1
    22    28    29    1
    23    14    15    1
    24    15    16    1
    25    16    17    1
    26    17    18    1
    27     6     2    1
    28    12     7   ar
    29    29    27    1
    30    18    15    1
    31    15     4    1
    32    26    21   ar
    33     1    19    1
    34     1    20    1
@<TRIPOS>MOLECULE
*****
 29 34 0 0 0
SMALL
GASTEIGER

@<TRIPOS>ATOM
      1 N         137.5155  138.3708  167.2835 N.pl3   1  UNL1       -0.3133
      2 C         138.5374  138.2618  166.1910 C.2     1  UNL1        0.2770
      3 N         139.7522  139.1271  166.0305 N.2     1  UNL1       -0.2202
      4 C         140.4897  138.6685  164.8075 C.3     1  UNL1        0.1582
      5 C         139.7307  137.5198  164.2121 C.3     1  UNL1        0.2351
      6 O         138.5241  137.2684  165.0672 O.2     1  UNL1       -0.4478
      7 C         141.1377  139.8223  165.5138 C.ar    1  UNL1        0.0357
      8 C         140.5127  140.3890  166.7541 C.ar    1  UNL1        0.0007
      9 C         141.1607  141.5428  167.4604 C.ar    1  UNL1        0.0029
     10 C         142.4336  142.1298  166.9265 C.ar    1  UNL1        0.0032
     11 C         143.0586  141.5631  165.6862 C.ar    1  UNL1        0.0366
     12 C         142.4106  140.4093  164.9799 C.ar    1  UNL1        0.1362
     13 O         143.0355  139.8425  163.7397 O.3     1  UNL1       -0.4792
     14 C         142.3875  138.6887  163.0334 C.3     1  UNL1        0.1725
     15 C         141.1146  138.1017  163.5672 C.3     1  UNL1        0.1174
     16 C         141.2954  138.4236  163.7643 C.3     1  UNL1        0.1502
     17 O         141.1054  138.0852  163.5572 O.3     1  UNL1       -0.3532
     18 C         141.2954  138.4236  163.7643 C.3     1  UNL1        0.1502
     19 H         137.6115  139.0595  167.9804 H       1  UNL1        0.1466
     20 H         136.7487  137.7536  167.3036 H       1  UNL1        0.1466
     21 C         140.5357  142.1096  168.7006 C.ar    1  UNL1        0.0384
     22 C         140.7547  143.5494  169.0601 C.ar    1  UNL1        0.1022
     23 N         140.1298  144.1162  170.3003 N.ar    1  UNL1       -0.2224
     24 C         139.2859  143.2432  171.1811 C.ar    1  UNL1        0.1989
     25 N         139.0669  141.8035  170.8217 N.ar    1  UNL1       -0.2224
     26 C         139.6918  141.2367  169.5814 C.ar    1  UNL1        0.1022
     27 C         143.0125  138.1219  161.7931 C.3     1  UNL1        0.0403
     28 C         142.9114  137.7374  160.3467 C.3     1  UNL1        0.0037
     29 C         144.1961  137.5248  161.0912 C.3     1  UNL1        0.0037
@<TRIPOS>BOND
     1     1     2    1
     2     2     3    2
     3     3     4    1
     4     4     5    1
     5     5     6    1
     6     4     7    1
     7     7     8   ar
     8     8     9   ar
     9     9    21    1
    10    21    22   ar
    11    22    23   ar
    12    23    24   ar
    13    24    25   ar
    14    25    26   ar
    15     9    10   ar
    16    10    11   ar
    17    11    12   ar
    18    12    13    1
    19    13    14    1
    20    14    27    1
    21    27    28    1
    22    28    29    1
    23    14    15    1
    24    15    16    1
    25    16    17    1
    26    17    18    1
    27     6     2    1
    28    12     7   ar
    29    29    27    1
    30    18    15    1
    31    15     4    1
    32    26    21   ar
    33     1    19    1
    34     1    20    1
@<TRIPOS>MOLECULE
*****
 29 34 0 0 0
SMALL
GASTEIGER

@<TRIPOS>ATOM
      1 N         144.7124  141.5721  162.4588 N.pl3   1  UNL1       -0.3133
      2 C         143.9076  141.7135  163.7166 C.2     1  UNL1        0.2770
      3 N         142.6519  142.5188  163.8740 N.2     1  UNL1       -0.2202
      4 C         142.1853  142.3774  165.2927 C.3     1  UNL1        0.1582
      5 C         143.1527  141.4848  166.0120 C.3     1  UNL1        0.2351
      6 O         144.2172  141.0744  165.0379 O.2     1  UNL1       -0.4478
      7 C         141.3074  143.2504  164.4458 C.ar    1  UNL1        0.0357
      8 C         141.6492  143.4843  163.0041 C.ar    1  UNL1        0.0007
      9 C         140.7713  144.3573  162.1573 C.ar    1  UNL1        0.0029
     10 C         139.5515  144.9964  162.7522 C.ar    1  UNL1        0.0032
     11 C         139.2097  144.7624  164.1938 C.ar    1  UNL1        0.0366
     12 C         140.0877  143.8895  165.0407 C.ar    1  UNL1        0.1362
     13 O         139.7459  143.6555  166.4823 O.3     1  UNL1       -0.4792
     14 C         140.6239  142.7826  167.3292 C.3     1  UNL1        0.1725
     15 C         141.8436  142.1435  166.7343 C.3     1  UNL1        0.1174
     16 C         141.5986  142.3871  166.4981 C.3     1  UNL1        0.1502
     17 O         141.8561  142.1310  166.7464 O.3     1  UNL1       -0.3532
     18 C         141.5986  142.3871  166.4981 C.3     1  UNL1        0.1502
     19 H         144.4267  142.0331  161.6372 H       1  UNL1        0.1466
     20 H         145.5264  141.0183  162.4549 H       1  UNL1        0.1466
     21 C         141.1130  144.5912  160.7156 C.ar    1  UNL1        0.0384
     22 C         140.2387  145.4696  159.8705 C.ar    1  UNL1        0.1022
     23 N         140.5805  145.7035  158.4288 N.ar    1  UNL1       -0.2224
     24 C         141.7965  145.0591  157.8322 C.ar    1  UNL1        0.1989
     25 N         142.6708  144.1807  158.6772 N.ar    1  UNL1       -0.2224
     26 C         142.3291  143.9468  160.1190 C.ar    1  UNL1        0.1022
     27 C         140.2820  142.5487  168.7709 C.3     1  UNL1        0.0403
     28 C         140.1414  143.0637  170.1727 C.3     1  UNL1        0.0037
     29 C         139.8306  141.6286  169.8662 C.3     1  UNL1        0.0037
@<TRIPOS>BOND
     1     1     2    1
     2     2     3    2
     3     3     4    1
     4     4     5    1
     5     5     6    1
     6     4     7    1
     7     7     8   ar
     8     8     9   ar
     9     9    21    1
    10    21    22   ar
    11    22    23   ar
    12    23    24   ar
    13    24    25   ar
    14    25    26   ar
    15     9    10   ar
    16    10    11   ar
    17    11    12   ar
    18    12    13    1
    19    13    14    1
    20    14    27    1
    21    27    28    1
    22    28    29    1
    23    14    15    1
    24    15    16    1
    25    16    17    1
    26    17    18    1
    27     6     2    1
    28    12     7   ar
    29    29    27    1
    30    18    15    1
    31    15     4    1
    32    26    21   ar
    33     1    19    1
    34     1    20    1
@<TRIPOS>MOLECULE
*****
 29 34 0 0 0
SMALL
GASTEIGER

@<TRIPOS>ATOM
      1 N         139.3635  143.4404  161.2195 N.pl3   1  UNL1       -0.3133
      2 C         139.5255  143.4191  162.7105 C.2     1  UNL1        0.2770
      3 N         140.3463  142.4382  163.4943 N.2     1  UNL1       -0.2202
      4 C         140.2233  142.7878  164.9479 C.3     1  UNL1        0.1582
      5 C         139.3264  143.9847  165.0624 C.3     1  UNL1        0.2351
      6 O         138.8952  144.3748  163.6796 O.2     1  UNL1       -0.4478
      7 C         141.0983  141.5997  164.6781 C.ar    1  UNL1        0.0357
      8 C         141.3151  141.1323  163.2693 C.ar    1  UNL1        0.0007
      9 C         142.1901  139.9443  162.9995 C.ar    1  UNL1        0.0029
     10 C         142.8483  139.2235  164.1385 C.ar    1  UNL1        0.0032
     11 C         142.6315  139.6909  165.5472 C.ar    1  UNL1        0.0366
     12 C         141.7565  140.8790  165.8170 C.ar    1  UNL1        0.1362
     13 O         141.5397  141.3463  167.2257 O.3     1  UNL1       -0.4792
     14 C         140.6647  142.5344  167.4955 C.3     1  UNL1        0.1725
     15 C         140.0065  143.2551  166.3566 C.3     1  UNL1        0.1174
     16 C         140.2506  142.9237  166.2813 C.3     1  UNL1        0.1502
     17 O         139.9940  143.2721  166.3604 O.3     1  UNL1       -0.3532
     18 C         140.2506  142.9237  166.2813 C.3     1  UNL1        0.1502
     19 H         139.8201  142.7671  160.6651 H       1  UNL1        0.1466
     20 H         138.8006  144.1277  160.7953 H       1  UNL1        0.1466
     21 C         142.4069  139.4769  161.5908 C.ar    1  UNL1        0.0384
     22 C         143.7570  139.6193  160.9527 C.ar    1  UNL1        0.1022
     23 N         143.9738  139.1519  159.5440 N.ar    1  UNL1       -0.2224
     24 C         142.8405  138.5422  158.7733 C.ar    1  UNL1        0.1989
     25 N         141.4905  138.3998  159.4113 N.ar    1  UNL1       -0.2224
     26 C         141.2736  138.8672  160.8201 C.ar    1  UNL1        0.1022
     27 C         140.4479  143.0018  168.9043 C.3     1  UNL1        0.0403
     28 C         139.9542  142.7438  170.2971 C.3     1  UNL1        0.0037
     29 C         140.5662  144.0690  169.9517 C.3     1  UNL1        0.0037
@<TRIPOS>BOND
     1     1     2    1
     2     2     3    2
     3     3     4    1
     4     4     5    1
     5     5     6    1
     6     4     7    1
     7     7     8   ar
     8     8     9   ar
     9     9    21    1
    10    21    22   ar
    11    22    23   ar
    12    23    24   ar
    13    24    25   ar
    14    25    26   ar
    15     9    10   ar
    16    10    11   ar
    17    11    12   ar
    18    12    13    1
    19    13    14    1
    20    14    27    1
    21    27    28    1
    22    28    29    1
    23    14    15    1
    24    15    16    1
    25    16    17    1
    26    17    18    1
    27     6     2    1
    28    12     7   ar
    29    29    27    1
    30    18    15    1
    31    15     4    1
    32    26    21   ar
    33     1    19    1
    34     1    20    1
