@<TRIPOS>MOLECULE
*****
 34 36 0 0 0
SMALL
GASTEIGER

@<TRIPOS>ATOM
      1 C         143.4123  142.1599  164.2466 C.3     1  UNL1        0.0690
      2 C         144.4993  141.1759  164.5632 C.3     1  UNL1        0.0485
      3 C         145.6721  141.0309  163.6394 C.3     1  UNL1        0.1436
      4 O         145.7579  141.8698  162.3989 O.3     1  UNL1       -0.3537
      5 C         144.6709  142.8537  162.0822 C.3     1  UNL1        0.1436
      6 C         143.4981  142.9988  163.0060 C.3     1  UNL1        0.0485
      7 N         142.8854  141.5945  165.5322 N.3     1  UNL1       -0.2710
      8 C         142.8912  140.1115  165.7575 C.3     1  UNL1        0.0896
      9 C         142.3643  139.5462  167.0431 C.3     1  UNL1        0.0897
     10 N         141.8316  140.4639  168.1034 N.3     1  UNL1       -0.2683
     11 C         141.8258  141.9468  167.8780 C.3     1  UNL1        0.0897
     12 C         142.3527  142.5121  166.5925 C.3     1  UNL1        0.0896
     13 C         141.3047  139.8985  169.3890 C.3     1  UNL1        0.0993
     14 C         140.0457  140.4493  169.9903 C.3     1  UNL1        0.1031
     15 C         139.2655  139.9571  168.8076 C.3     1  UNL1        0.0307
     16 C         140.8260  140.9416  171.1730 C.3     1  UNL1        0.0307
     17 O         138.7867  141.0002  170.5917 O.3     1  UNL1       -0.3854
     18 H         138.0396  140.8188  170.0003 H       1  UNL1        0.2103
     19 C         142.1423  142.9475  164.3763 C.3     1  UNL1        0.1143
     20 C         140.1465  143.6246  162.8571 C.2     1  UNL1        0.2304
     21 O         140.5599  145.0632  162.9552 O.2     1  UNL1       -0.2745
     22 N         140.9377  142.5668  163.5677 N.am    1  UNL1       -0.2425
     23 C         140.5243  141.1281  163.4696 C.ar    1  UNL1        0.1373
     24 C         140.9581  140.3016  162.2954 C.ar    1  UNL1        0.0347
     25 C         140.5447  138.8630  162.1973 C.ar    1  UNL1        0.0044
     26 C         139.6975  138.2511  163.2733 C.ar    1  UNL1        0.0232
     27 C         139.2637  139.0777  164.4473 C.ar    1  UNL1        0.1540
     28 N         139.6771  140.5162  164.5455 N.ar    1  UNL1       -0.2263
     29 C         138.4164  138.4657  165.5234 C.3     1  UNL1        0.4349
     30 F         137.5692  137.8538  166.5994 F       1  UNL1       -0.1644
     31 F         139.1092  137.1508  165.3209 F       1  UNL1       -0.1644
     32 F         137.7238  139.7807  165.7258 F       1  UNL1       -0.1644
     33 C         137.6076  143.0913  162.7165 C.3     1  UNL1        0.0101
     34 C         138.9419  143.2440  162.0484 C.3     1  UNL1        0.0857
@<TRIPOS>BOND
     1    33    34    1
     2    34    20    1
     3    20    21    2
     4    20    22   am
     5    22    19    1
     6    19     1    1
     7     1     7    1
     8     7     8    1
     9     8     9    1
    10     9    10    1
    11    10    13    1
    12    13    14    1
    13    14    15    1
    14    14    16    1
    15    14    17    1
    16    10    11    1
    17    11    12    1
    18     1     2    1
    19     2     3    1
    20     3     4    1
    21     4     5    1
    22     5     6    1
    23    22    23    1
    24    23    24   ar
    25    24    25   ar
    26    25    26   ar
    27    26    27   ar
    28    27    29    1
    29    29    30    1
    30    29    31    1
    31    29    32    1
    32    27    28   ar
    33     6     1    1
    34    28    23   ar
    35    12     7    1
    36    17    18    1
@<TRIPOS>MOLECULE
*****
 34 36 0 0 0
SMALL
GASTEIGER

@<TRIPOS>ATOM
      1 C         143.0035  142.7013  164.3680 C.3     1  UNL1        0.0690
      2 C         142.3896  144.0640  164.4942 C.3     1  UNL1        0.0485
      3 C         142.6058  145.0866  163.4182 C.3     1  UNL1        0.1436
      4 O         143.4359  144.7463  162.2161 O.3     1  UNL1       -0.3537
      5 C         144.0498  143.3836  162.0899 C.3     1  UNL1        0.1436
      6 C         143.8337  142.3610  163.1659 C.3     1  UNL1        0.0485
      7 N         142.3020  142.5500  165.6853 N.3     1  UNL1       -0.2710
      8 C         143.0493  142.0306  166.8777 C.3     1  UNL1        0.0896
      9 C         142.3477  141.8794  168.1948 C.3     1  UNL1        0.0897
     10 N         140.8989  142.2474  168.3195 N.3     1  UNL1       -0.2683
     11 C         140.1517  142.7667  167.1272 C.3     1  UNL1        0.0897
     12 C         140.8532  142.9180  165.8100 C.3     1  UNL1        0.0896
     13 C         140.1974  142.0961  169.6368 C.3     1  UNL1        0.0993
     14 C         140.1672  140.7619  170.3215 C.3     1  UNL1        0.1031
     15 C         141.1581  141.2582  171.3323 C.3     1  UNL1        0.0307
     16 C         139.1764  140.2655  169.3107 C.3     1  UNL1        0.0307
     17 O         140.1370  139.4276  171.0063 O.3     1  UNL1       -0.3854
     18 H         140.7347  139.4425  171.7702 H       1  UNL1        0.2103
     19 C         143.3739  141.2859  164.6993 C.3     1  UNL1        0.1143
     20 C         143.6081  139.1318  163.2659 C.2     1  UNL1        0.2304
     21 O         145.1020  139.2487  163.3345 O.2     1  UNL1       -0.2745
     22 N         142.7441  140.1505  163.9483 N.am    1  UNL1       -0.2425
     23 C         141.2502  140.0337  163.8797 C.ar    1  UNL1        0.1373
     24 C         140.4946  140.7138  162.7768 C.ar    1  UNL1        0.0347
     25 C         139.0007  140.5970  162.7081 C.ar    1  UNL1        0.0044
     26 C         138.2625  139.8000  163.7425 C.ar    1  UNL1        0.0232
     27 C         139.0181  139.1199  164.8454 C.ar    1  UNL1        0.1540
     28 N         140.5120  139.2367  164.9140 N.ar    1  UNL1       -0.2263
     29 C         138.2798  138.3229  165.8797 C.3     1  UNL1        0.4349
     30 F         137.5416  137.5259  166.9140 F       1  UNL1       -0.1644
     31 F         137.6155  139.5750  166.3703 F       1  UNL1       -0.1644
     32 F         138.9443  137.0707  165.3891 F       1  UNL1       -0.1644
     33 C         142.7183  138.1232  161.0431 C.3     1  UNL1        0.0101
     34 C         142.9784  137.9963  162.5149 C.3     1  UNL1        0.0857
@<TRIPOS>BOND
     1    33    34    1
     2    34    20    1
     3    20    21    2
     4    20    22   am
     5    22    19    1
     6    19     1    1
     7     1     7    1
     8     7     8    1
     9     8     9    1
    10     9    10    1
    11    10    13    1
    12    13    14    1
    13    14    15    1
    14    14    16    1
    15    14    17    1
    16    10    11    1
    17    11    12    1
    18     1     2    1
    19     2     3    1
    20     3     4    1
    21     4     5    1
    22     5     6    1
    23    22    23    1
    24    23    24   ar
    25    24    25   ar
    26    25    26   ar
    27    26    27   ar
    28    27    29    1
    29    29    30    1
    30    29    31    1
    31    29    32    1
    32    27    28   ar
    33     6     1    1
    34    28    23   ar
    35    12     7    1
    36    17    18    1
@<TRIPOS>MOLECULE
*****
 34 36 0 0 0
SMALL
GASTEIGER

@<TRIPOS>ATOM
      1 C         142.2538  139.2420  164.1346 C.3     1  UNL1        0.0690
      2 C         141.1169  138.2822  164.3249 C.3     1  UNL1        0.0485
      3 C         140.8277  137.2456  163.2800 C.3     1  UNL1        0.1436
      4 O         141.6755  137.1688  162.0448 O.3     1  UNL1       -0.3537
      5 C         142.8123  138.1286  161.8546 C.3     1  UNL1        0.1436
      6 C         143.1015  139.1653  162.8995 C.3     1  UNL1        0.0485
      7 N         141.7388  139.7084  165.4641 N.3     1  UNL1       -0.2710
      8 C         142.6922  139.9381  166.5990 C.3     1  UNL1        0.0896
      9 C         142.1773  140.4045  167.9284 C.3     1  UNL1        0.0897
     10 N         140.7089  140.6412  168.1228 N.3     1  UNL1       -0.2683
     11 C         139.7555  140.4116  166.9878 C.3     1  UNL1        0.0897
     12 C         140.2704  139.9452  165.6584 C.3     1  UNL1        0.0896
     13 C         140.1939  141.1076  169.4522 C.3     1  UNL1        0.0993
     14 C         140.9693  142.1182  170.2443 C.3     1  UNL1        0.1031
     15 C         140.5222  143.1981  169.3042 C.3     1  UNL1        0.0307
     16 C         141.4165  141.0383  171.1843 C.3     1  UNL1        0.0307
     17 O         141.7448  143.1288  171.0364 O.3     1  UNL1       -0.3854
     18 H         141.6394  144.0051  170.6340 H       1  UNL1        0.2103
     19 C         143.2119  140.3639  164.4061 C.3     1  UNL1        0.1143
     20 C         144.3064  142.4177  163.2513 C.2     1  UNL1        0.2304
     21 O         145.6666  141.8793  163.5830 O.2     1  UNL1       -0.2745
     22 N         143.0791  141.6600  163.6629 N.am    1  UNL1       -0.2425
     23 C         141.7189  142.1984  163.3312 C.ar    1  UNL1        0.1373
     24 C         141.0982  141.8990  161.9988 C.ar    1  UNL1        0.0347
     25 C         139.7380  142.4374  161.6671 C.ar    1  UNL1        0.0044
     26 C         138.9986  143.2752  162.6678 C.ar    1  UNL1        0.0232
     27 C         139.6192  143.5745  164.0001 C.ar    1  UNL1        0.1540
     28 N         140.9794  143.0362  164.3318 N.ar    1  UNL1       -0.2263
     29 C         138.8797  144.4123  165.0008 C.3     1  UNL1        0.4349
     30 F         138.1402  145.2501  166.0015 F       1  UNL1       -0.1644
     31 F         139.8337  143.9744  166.0723 F       1  UNL1       -0.1644
     32 F         137.9258  144.8503  163.9292 F       1  UNL1       -0.1644
     33 C         143.8963  144.9832  163.2575 C.3     1  UNL1        0.0101
     34 C         144.1737  143.7138  162.5081 C.3     1  UNL1        0.0857
@<TRIPOS>BOND
     1    33    34    1
     2    34    20    1
     3    20    21    2
     4    20    22   am
     5    22    19    1
     6    19     1    1
     7     1     7    1
     8     7     8    1
     9     8     9    1
    10     9    10    1
    11    10    13    1
    12    13    14    1
    13    14    15    1
    14    14    16    1
    15    14    17    1
    16    10    11    1
    17    11    12    1
    18     1     2    1
    19     2     3    1
    20     3     4    1
    21     4     5    1
    22     5     6    1
    23    22    23    1
    24    23    24   ar
    25    24    25   ar
    26    25    26   ar
    27    26    27   ar
    28    27    29    1
    29    29    30    1
    30    29    31    1
    31    29    32    1
    32    27    28   ar
    33     6     1    1
    34    28    23   ar
    35    12     7    1
    36    17    18    1
@<TRIPOS>MOLECULE
*****
 34 36 0 0 0
SMALL
GASTEIGER

@<TRIPOS>ATOM
      1 C         143.0040  141.9901  163.7974 C.3     1  UNL1        0.0690
      2 C         144.1787  141.6525  164.6669 C.3     1  UNL1        0.0485
      3 C         145.5383  141.4805  164.0571 C.3     1  UNL1        0.1436
      4 O         145.7232  141.6462  162.5777 O.3     1  UNL1       -0.3537
      5 C         144.5485  141.9838  161.7082 C.3     1  UNL1        0.1436
      6 C         143.1889  142.1558  162.3180 C.3     1  UNL1        0.0485
      7 N         142.3298  141.9351  165.1362 N.3     1  UNL1       -0.2710
      8 C         141.2780  142.9449  165.4883 C.3     1  UNL1        0.0896
      9 C         140.6038  142.8898  166.8271 C.3     1  UNL1        0.0897
     10 N         140.9814  141.8250  167.8138 N.3     1  UNL1       -0.2683
     11 C         142.0332  140.8152  167.4617 C.3     1  UNL1        0.0897
     12 C         142.7074  140.8703  166.1229 C.3     1  UNL1        0.0896
     13 C         140.3071  141.7700  169.1526 C.3     1  UNL1        0.0993
     14 C         141.1152  141.9286  170.4064 C.3     1  UNL1        0.1031
     15 C         141.4353  143.3425  170.0212 C.3     1  UNL1        0.0307
     16 C         140.7951  140.5147  170.7916 C.3     1  UNL1        0.0307
     17 O         141.9232  142.0872  171.6602 O.3     1  UNL1       -0.3854
     18 H         142.2926  142.9834  171.6956 H       1  UNL1        0.2103
     19 C         141.5951  142.3086  163.3928 C.3     1  UNL1        0.1143
     20 C         140.0663  141.5240  161.4442 C.2     1  UNL1        0.2304
     21 O         140.2465  142.8510  160.7685 O.2     1  UNL1       -0.2745
     22 N         140.7407  141.2528  162.7564 N.am    1  UNL1       -0.2425
     23 C         140.5605  139.9258  163.4321 C.ar    1  UNL1        0.1373
     24 C         141.4475  138.7722  163.0679 C.ar    1  UNL1        0.0347
     25 C         141.2673  137.4452  163.7436 C.ar    1  UNL1        0.0044
     26 C         140.2002  137.2718  164.7834 C.ar    1  UNL1        0.0232
     27 C         139.3133  138.4253  165.1475 C.ar    1  UNL1        0.1540
     28 N         139.4934  139.7524  164.4719 N.ar    1  UNL1       -0.2263
     29 C         138.2462  138.2519  166.1874 C.3     1  UNL1        0.4349
     30 F         137.1791  138.0785  167.2273 F       1  UNL1       -0.1644
     31 F         138.3173  139.7163  166.5045 F       1  UNL1       -0.1644
     32 F         138.1752  136.7875  165.8703 F       1  UNL1       -0.1644
     33 C         137.7538  140.3772  161.1483 C.3     1  UNL1        0.0101
     34 C         139.2118  140.4682  160.8077 C.3     1  UNL1        0.0857
@<TRIPOS>BOND
     1    33    34    1
     2    34    20    1
     3    20    21    2
     4    20    22   am
     5    22    19    1
     6    19     1    1
     7     1     7    1
     8     7     8    1
     9     8     9    1
    10     9    10    1
    11    10    13    1
    12    13    14    1
    13    14    15    1
    14    14    16    1
    15    14    17    1
    16    10    11    1
    17    11    12    1
    18     1     2    1
    19     2     3    1
    20     3     4    1
    21     4     5    1
    22     5     6    1
    23    22    23    1
    24    23    24   ar
    25    24    25   ar
    26    25    26   ar
    27    26    27   ar
    28    27    29    1
    29    29    30    1
    30    29    31    1
    31    29    32    1
    32    27    28   ar
    33     6     1    1
    34    28    23   ar
    35    12     7    1
    36    17    18    1
@<TRIPOS>MOLECULE
*****
 34 36 0 0 0
SMALL
GASTEIGER

@<TRIPOS>ATOM
      1 C         143.1165  140.4202  164.2394 C.3     1  UNL1        0.0690
      2 C         143.9857  141.5325  164.7463 C.3     1  UNL1        0.0485
      3 C         145.1601  141.9954  163.9361 C.3     1  UNL1        0.1436
      4 O         145.4652  141.3460  162.6188 O.3     1  UNL1       -0.3537
      5 C         144.5959  140.2336  162.1118 C.3     1  UNL1        0.1436
      6 C         143.4215  139.7707  162.9221 C.3     1  UNL1        0.0485
      7 N         142.4262  140.7194  165.5371 N.3     1  UNL1       -0.2710
      8 C         142.0665  139.6017  166.4705 C.3     1  UNL1        0.0896
      9 C         141.3763  139.9009  167.7681 C.3     1  UNL1        0.0897
     10 N         141.0457  141.3180  168.1324 N.3     1  UNL1       -0.2683
     11 C         141.4054  142.4357  167.1991 C.3     1  UNL1        0.0897
     12 C         142.0956  142.1365  165.9014 C.3     1  UNL1        0.0896
     13 C         140.3554  141.6172  169.4302 C.3     1  UNL1        0.0993
     14 C         140.1238  140.5204  170.4268 C.3     1  UNL1        0.1031
     15 C         138.7509  140.2992  169.8643 C.3     1  UNL1        0.0307
     16 C         141.4966  140.7415  170.9892 C.3     1  UNL1        0.0307
     17 O         139.8922  139.4235  171.4235 O.3     1  UNL1       -0.3854
     18 H         139.0052  139.0522  171.2954 H       1  UNL1        0.2103
     19 C         142.0074  139.4118  164.1831 C.3     1  UNL1        0.1143
     20 C         140.3892  138.2990  162.4823 C.2     1  UNL1        0.2304
     21 O         140.9111  136.9473  162.8701 O.2     1  UNL1       -0.2745
     22 N         140.9373  139.5313  163.1388 N.am    1  UNL1       -0.2425
     23 C         140.4154  140.8830  162.7511 C.ar    1  UNL1        0.1373
     24 C         140.8047  141.4880  161.4349 C.ar    1  UNL1        0.0347
     25 C         140.2828  142.8398  161.0471 C.ar    1  UNL1        0.0044
     26 C         139.3715  143.5865  161.9755 C.ar    1  UNL1        0.0232
     27 C         138.9822  142.9814  163.2917 C.ar    1  UNL1        0.1540
     28 N         139.5041  141.6297  163.6795 N.ar    1  UNL1       -0.2263
     29 C         138.0708  143.7282  164.2202 C.3     1  UNL1        0.4349
     30 F         137.1595  144.4749  165.1486 F       1  UNL1       -0.1644
     31 F         138.7644  143.1102  165.3979 F       1  UNL1       -0.1644
     32 F         137.3773  144.3461  163.0424 F       1  UNL1       -0.1644
     33 C         137.8738  138.3499  161.8337 C.3     1  UNL1        0.0101
     34 C         139.3190  138.4184  161.4380 C.3     1  UNL1        0.0857
@<TRIPOS>BOND
     1    33    34    1
     2    34    20    1
     3    20    21    2
     4    20    22   am
     5    22    19    1
     6    19     1    1
     7     1     7    1
     8     7     8    1
     9     8     9    1
    10     9    10    1
    11    10    13    1
    12    13    14    1
    13    14    15    1
    14    14    16    1
    15    14    17    1
    16    10    11    1
    17    11    12    1
    18     1     2    1
    19     2     3    1
    20     3     4    1
    21     4     5    1
    22     5     6    1
    23    22    23    1
    24    23    24   ar
    25    24    25   ar
    26    25    26   ar
    27    26    27   ar
    28    27    29    1
    29    29    30    1
    30    29    31    1
    31    29    32    1
    32    27    28   ar
    33     6     1    1
    34    28    23   ar
    35    12     7    1
    36    17    18    1
@<TRIPOS>MOLECULE
*****
 34 36 0 0 0
SMALL
GASTEIGER

@<TRIPOS>ATOM
      1 C         143.0166  140.4373  164.2382 C.3     1  UNL1        0.0690
      2 C         143.9230  141.5194  164.7455 C.3     1  UNL1        0.0485
      3 C         145.0918  141.9675  163.9190 C.3     1  UNL1        0.1436
      4 O         145.3541  141.3335  162.5851 O.3     1  UNL1       -0.3537
      5 C         144.4477  140.2514  162.0778 C.3     1  UNL1        0.1436
      6 C         143.2790  139.8032  162.9043 C.3     1  UNL1        0.0485
      7 N         142.3603  140.7309  165.5547 N.3     1  UNL1       -0.2710
      8 C         142.0180  139.6085  166.4889 C.3     1  UNL1        0.0896
      9 C         141.3617  139.9022  167.8054 C.3     1  UNL1        0.0897
     10 N         141.0476  141.3183  168.1875 N.3     1  UNL1       -0.2683
     11 C         141.3899  142.4407  167.2532 C.3     1  UNL1        0.0897
     12 C         142.0462  142.1471  165.9368 C.3     1  UNL1        0.0896
     13 C         140.3913  141.6119  169.5040 C.3     1  UNL1        0.0993
     14 C         140.1114  140.4971  170.4677 C.3     1  UNL1        0.1031
     15 C         141.4832  140.6583  171.0526 C.3     1  UNL1        0.0307
     16 C         138.7397  140.3358  169.8827 C.3     1  UNL1        0.0307
     17 O         139.8315  139.3822  171.4314 O.3     1  UNL1       -0.3854
     18 H         140.6075  139.2401  171.9958 H       1  UNL1        0.2103
     19 C         141.8822  139.4571  164.1881 C.3     1  UNL1        0.1143
     20 C         140.2367  138.7458  162.3076 C.2     1  UNL1        0.2304
     21 O         140.9935  137.4628  162.1307 O.2     1  UNL1       -0.2745
     22 N         140.6811  139.7430  163.3363 N.am    1  UNL1       -0.2425
     23 C         139.9244  141.0260  163.5132 C.ar    1  UNL1        0.1373
     24 C         138.7524  141.0827  164.4476 C.ar    1  UNL1        0.0347
     25 C         137.9956  142.3657  164.6245 C.ar    1  UNL1        0.0044
     26 C         138.4109  143.5919  163.8669 C.ar    1  UNL1        0.0232
     27 C         139.5829  143.5351  162.9325 C.ar    1  UNL1        0.1540
     28 N         140.3397  142.2522  162.7556 N.ar    1  UNL1       -0.2263
     29 C         139.9982  144.7614  162.1749 C.3     1  UNL1        0.4349
     30 F         140.4135  145.9876  161.4174 F       1  UNL1       -0.1644
     31 F         138.5852  145.2634  162.2130 F       1  UNL1       -0.1644
     32 F         141.4112  144.2594  162.1369 F       1  UNL1       -0.1644
     33 C         137.7061  138.4335  161.8089 C.3     1  UNL1        0.0101
     34 C         139.0356  139.0316  161.4558 C.3     1  UNL1        0.0857
@<TRIPOS>BOND
     1    33    34    1
     2    34    20    1
     3    20    21    2
     4    20    22   am
     5    22    19    1
     6    19     1    1
     7     1     7    1
     8     7     8    1
     9     8     9    1
    10     9    10    1
    11    10    13    1
    12    13    14    1
    13    14    15    1
    14    14    16    1
    15    14    17    1
    16    10    11    1
    17    11    12    1
    18     1     2    1
    19     2     3    1
    20     3     4    1
    21     4     5    1
    22     5     6    1
    23    22    23    1
    24    23    24   ar
    25    24    25   ar
    26    25    26   ar
    27    26    27   ar
    28    27    29    1
    29    29    30    1
    30    29    31    1
    31    29    32    1
    32    27    28   ar
    33     6     1    1
    34    28    23   ar
    35    12     7    1
    36    17    18    1
@<TRIPOS>MOLECULE
*****
 34 36 0 0 0
SMALL
GASTEIGER

@<TRIPOS>ATOM
      1 C         139.1698  140.4985  164.2265 C.3     1  UNL1        0.0690
      2 C         138.3766  141.7343  164.5324 C.3     1  UNL1        0.0485
      3 C         137.2812  142.1711  163.6055 C.3     1  UNL1        0.1436
      4 O         136.9791  141.3720  162.3724 O.3     1  UNL1       -0.3537
      5 C         137.7722  140.1363  162.0665 C.3     1  UNL1        0.1436
      6 C         138.8676  139.6995  162.9934 C.3     1  UNL1        0.0485
      7 N         139.8267  140.9191  165.5078 N.3     1  UNL1       -0.2710
      8 C         140.2629  142.3419  165.6952 C.3     1  UNL1        0.0896
      9 C         140.9197  142.7624  166.9764 C.3     1  UNL1        0.0897
     10 N         141.1405  141.7600  168.0703 N.3     1  UNL1       -0.2683
     11 C         140.7044  140.3372  167.8828 C.3     1  UNL1        0.0897
     12 C         140.0475  139.9167  166.6016 C.3     1  UNL1        0.0896
     13 C         141.7974  142.1806  169.3516 C.3     1  UNL1        0.0993
     14 C         141.0230  142.1526  170.6358 C.3     1  UNL1        0.1031
     15 C         141.8572  141.0012  171.1138 C.3     1  UNL1        0.0307
     16 C         140.1888  143.3040  170.1579 C.3     1  UNL1        0.0307
     17 O         140.2485  142.1247  171.9202 O.3     1  UNL1       -0.3854
     18 H         140.5901  141.4167  172.4884 H       1  UNL1        0.2103
     19 C         140.1912  139.4088  164.3655 C.3     1  UNL1        0.1143
     20 C         141.8846  138.0785  162.9120 C.2     1  UNL1        0.2304
     21 O         141.1844  136.8001  163.2662 O.2     1  UNL1       -0.2745
     22 N         141.3880  139.3828  163.4616 N.am    1  UNL1       -0.2425
     23 C         142.0882  140.6612  163.1074 C.ar    1  UNL1        0.1373
     24 C         142.0205  141.1897  161.7053 C.ar    1  UNL1        0.0347
     25 C         142.7208  142.4681  161.3511 C.ar    1  UNL1        0.0044
     26 C         143.4887  143.2179  162.3991 C.ar    1  UNL1        0.0232
     27 C         143.5563  142.6893  163.8012 C.ar    1  UNL1        0.1540
     28 N         142.8561  141.4110  164.1554 N.ar    1  UNL1       -0.2263
     29 C         144.3242  143.4391  164.8492 C.3     1  UNL1        0.4349
     30 F         145.0921  144.1889  165.8971 F       1  UNL1       -0.1644
     31 F         144.3824  144.6375  163.9490 F       1  UNL1       -0.1644
     32 F         144.2659  142.2406  165.7493 F       1  UNL1       -0.1644
     33 C         142.9235  137.6749  160.5651 C.3     1  UNL1        0.0101
     34 C         143.0814  138.0525  162.0081 C.3     1  UNL1        0.0857
@<TRIPOS>BOND
     1    33    34    1
     2    34    20    1
     3    20    21    2
     4    20    22   am
     5    22    19    1
     6    19     1    1
     7     1     7    1
     8     7     8    1
     9     8     9    1
    10     9    10    1
    11    10    13    1
    12    13    14    1
    13    14    15    1
    14    14    16    1
    15    14    17    1
    16    10    11    1
    17    11    12    1
    18     1     2    1
    19     2     3    1
    20     3     4    1
    21     4     5    1
    22     5     6    1
    23    22    23    1
    24    23    24   ar
    25    24    25   ar
    26    25    26   ar
    27    26    27   ar
    28    27    29    1
    29    29    30    1
    30    29    31    1
    31    29    32    1
    32    27    28   ar
    33     6     1    1
    34    28    23   ar
    35    12     7    1
    36    17    18    1
@<TRIPOS>MOLECULE
*****
 34 36 0 0 0
SMALL
GASTEIGER

@<TRIPOS>ATOM
      1 C         138.9091  141.7609  164.0111 C.3     1  UNL1        0.0690
      2 C         138.5545  143.0101  164.7618 C.3     1  UNL1        0.0485
      3 C         137.9449  144.1732  164.0368 C.3     1  UNL1        0.1436
      4 O         137.6899  144.0870  162.5611 O.3     1  UNL1       -0.3537
      5 C         138.0445  142.8377  161.8105 C.3     1  UNL1        0.1436
      6 C         138.6541  141.6746  162.5354 C.3     1  UNL1        0.0485
      7 N         139.3391  141.3655  165.3928 N.3     1  UNL1       -0.2710
      8 C         140.2610  142.2539  166.1743 C.3     1  UNL1        0.0896
      9 C         140.6910  141.8585  167.5559 C.3     1  UNL1        0.0897
     10 N         140.1991  140.5747  168.1559 N.3     1  UNL1       -0.2683
     11 C         139.2772  139.6863  167.3743 C.3     1  UNL1        0.0897
     12 C         138.8473  140.0817  165.9928 C.3     1  UNL1        0.0896
     13 C         140.6292  140.1794  169.5375 C.3     1  UNL1        0.0993
     14 C         142.0515  140.3840  169.9676 C.3     1  UNL1        0.1031
     15 C         142.4979  139.3388  168.9888 C.3     1  UNL1        0.0307
     16 C         141.6051  141.4293  170.9464 C.3     1  UNL1        0.0307
     17 O         143.4739  140.5887  170.3978 O.3     1  UNL1       -0.3854
     18 H         144.0527  139.9956  169.8938 H       1  UNL1        0.2103
     19 C         139.4131  140.3742  163.7403 C.3     1  UNL1        0.1143
     20 C         140.7001  139.3619  161.7232 C.2     1  UNL1        0.2304
     21 O         139.4279  138.7464  161.2204 O.2     1  UNL1       -0.2745
     22 N         140.6926  140.1758  162.9831 N.am    1  UNL1       -0.2425
     23 C         141.9648  140.7914  163.4859 C.ar    1  UNL1        0.1373
     24 C         142.9109  139.9810  164.3214 C.ar    1  UNL1        0.0347
     25 C         144.1831  140.5965  164.8242 C.ar    1  UNL1        0.0044
     26 C         144.5091  142.0223  164.4914 C.ar    1  UNL1        0.0232
     27 C         143.5629  142.8326  163.6559 C.ar    1  UNL1        0.1540
     28 N         142.2908  142.2172  163.1531 N.ar    1  UNL1       -0.2263
     29 C         143.8889  144.2585  163.3231 C.3     1  UNL1        0.4349
     30 F         144.2149  145.6844  162.9904 F       1  UNL1       -0.1644
     31 F         142.9090  144.7242  164.3589 F       1  UNL1       -0.1644
     32 F         144.8688  143.7928  162.2874 F       1  UNL1       -0.1644
     33 C         142.7437  137.8805  161.1075 C.3     1  UNL1        0.0101
     34 C         141.9796  139.1635  160.9659 C.3     1  UNL1        0.0857
@<TRIPOS>BOND
     1    33    34    1
     2    34    20    1
     3    20    21    2
     4    20    22   am
     5    22    19    1
     6    19     1    1
     7     1     7    1
     8     7     8    1
     9     8     9    1
    10     9    10    1
    11    10    13    1
    12    13    14    1
    13    14    15    1
    14    14    16    1
    15    14    17    1
    16    10    11    1
    17    11    12    1
    18     1     2    1
    19     2     3    1
    20     3     4    1
    21     4     5    1
    22     5     6    1
    23    22    23    1
    24    23    24   ar
    25    24    25   ar
    26    25    26   ar
    27    26    27   ar
    28    27    29    1
    29    29    30    1
    30    29    31    1
    31    29    32    1
    32    27    28   ar
    33     6     1    1
    34    28    23   ar
    35    12     7    1
    36    17    18    1
@<TRIPOS>MOLECULE
*****
 34 36 0 0 0
SMALL
GASTEIGER

@<TRIPOS>ATOM
      1 C         140.2529  139.4955  164.3233 C.3     1  UNL1        0.0690
      2 C         141.1842  138.4846  164.9238 C.3     1  UNL1        0.0485
      3 C         141.4010  137.1663  164.2417 C.3     1  UNL1        0.1436
      4 O         140.6865  136.8591  162.9590 O.3     1  UNL1       -0.3537
      5 C         139.7552  137.8700  162.3585 C.3     1  UNL1        0.1436
      6 C         139.5384  139.1883  163.0406 C.3     1  UNL1        0.0485
      7 N         140.6975  140.2442  165.5447 N.3     1  UNL1       -0.2710
      8 C         142.1556  140.3197  165.8887 C.3     1  UNL1        0.0896
      9 C         142.6002  141.0684  167.1100 C.3     1  UNL1        0.0897
     10 N         141.5867  141.7415  167.9874 N.3     1  UNL1       -0.2683
     11 C         140.1287  141.6660  167.6435 C.3     1  UNL1        0.0897
     12 C         139.6841  140.9173  166.4221 C.3     1  UNL1        0.0896
     13 C         142.0314  142.4902  169.2089 C.3     1  UNL1        0.0993
     14 C         141.2380  142.3934  170.4781 C.3     1  UNL1        0.1031
     15 C         140.5740  143.7010  170.1628 C.3     1  UNL1        0.0307
     16 C         141.9020  141.0859  170.7935 C.3     1  UNL1        0.0307
     17 O         140.4445  142.2966  171.7475 O.3     1  UNL1       -0.3854
     18 H         139.8687  143.0729  171.8288 H       1  UNL1        0.2103
     19 C         139.4760  140.7665  164.1469 C.3     1  UNL1        0.1143
     20 C         138.9027  142.4723  162.2731 C.2     1  UNL1        0.2304
     21 O         137.4458  142.1487  162.4242 O.2     1  UNL1       -0.2745
     22 N         139.9177  141.7812  163.1345 N.am    1  UNL1       -0.2425
     23 C         141.3746  142.1049  162.9834 C.ar    1  UNL1        0.1373
     24 C         142.1925  141.4100  161.9355 C.ar    1  UNL1        0.0347
     25 C         143.6494  141.7336  161.7844 C.ar    1  UNL1        0.0044
     26 C         144.2883  142.7522  162.6812 C.ar    1  UNL1        0.0232
     27 C         143.4704  143.4471  163.7291 C.ar    1  UNL1        0.1540
     28 N         142.0135  143.1235  163.8803 N.ar    1  UNL1       -0.2263
     29 C         144.1093  144.4657  164.6260 C.3     1  UNL1        0.4349
     30 F         144.7483  145.4842  165.5228 F       1  UNL1       -0.1644
     31 F         143.2804  145.5434  163.9925 F       1  UNL1       -0.1644
     32 F         144.9382  143.3879  165.2595 F       1  UNL1       -0.1644
     33 C         139.6625  144.8880  161.6922 C.3     1  UNL1        0.0101
     34 C         139.3444  143.4871  161.2606 C.3     1  UNL1        0.0857
@<TRIPOS>BOND
     1    33    34    1
     2    34    20    1
     3    20    21    2
     4    20    22   am
     5    22    19    1
     6    19     1    1
     7     1     7    1
     8     7     8    1
     9     8     9    1
    10     9    10    1
    11    10    13    1
    12    13    14    1
    13    14    15    1
    14    14    16    1
    15    14    17    1
    16    10    11    1
    17    11    12    1
    18     1     2    1
    19     2     3    1
    20     3     4    1
    21     4     5    1
    22     5     6    1
    23    22    23    1
    24    23    24   ar
    25    24    25   ar
    26    25    26   ar
    27    26    27   ar
    28    27    29    1
    29    29    30    1
    30    29    31    1
    31    29    32    1
    32    27    28   ar
    33     6     1    1
    34    28    23   ar
    35    12     7    1
    36    17    18    1
