@<TRIPOS>MOLECULE
*****
 43 48 0 0 0
SMALL
GASTEIGER

@<TRIPOS>ATOM
      1 N         138.5750  142.1648  158.1150 N.am    1  UNL1       -0.2222
      2 C         138.4892  141.5196  159.4665 C.2     1  UNL1        0.3220
      3 O         137.8571  140.1941  159.7721 O.2     1  UNL1       -0.2512
      4 N         139.1465  142.4327  160.4586 N.am    1  UNL1       -0.1892
      5 C         139.6386  143.6422  159.7203 C.2     1  UNL1        0.2529
      6 O         140.3575  144.8118  160.3243 O.2     1  UNL1       -0.2724
      7 C         139.2854  143.4766  158.2719 C.3     1  UNL1        0.1391
      8 C         138.8680  143.1734  156.8634 C.3     1  UNL1        0.0449
      9 C         139.1718  144.1484  155.7648 C.3     1  UNL1        0.0746
     10 N         139.8929  145.4267  156.0747 N.3     1  UNL1       -0.2676
     11 C         140.3103  145.7299  157.4831 C.3     1  UNL1        0.0746
     12 C         140.0065  144.7549  158.5817 C.3     1  UNL1        0.0449
     13 C         136.0887  141.2828  155.1502 C.ar    1  UNL1        0.2293
     14 C         136.6199  141.8498  156.4333 C.ar    1  UNL1        0.0924
     15 C         138.0438  141.5977  156.8319 C.ar    1  UNL1        0.1453
     16 N         138.9365  140.7785  155.9476 N.ar    1  UNL1       -0.2084
     17 C         138.4053  140.2114  154.6646 C.ar    1  UNL1        0.2027
     18 N         136.9813  140.4635  154.2659 N.ar    1  UNL1       -0.1892
     19 C         133.5447  140.9600  155.5669 C.3     1  UNL1        0.2542
     20 O         134.6648  141.5348  154.7515 O.3     1  UNL1       -0.4560
     21 C         139.2871  142.1806  161.9305 C.ar    1  UNL1        0.0813
     22 C         138.1554  142.5080  162.8590 C.ar    1  UNL1        0.0185
     23 C         138.2960  142.2559  164.3309 C.ar    1  UNL1        0.0204
     24 C         139.5683  141.6763  164.8744 C.ar    1  UNL1        0.0814
     25 N         140.7000  141.3488  163.9460 N.ar    1  UNL1       -0.2425
     26 C         140.5594  141.6010  162.4740 C.ar    1  UNL1        0.1141
     27 C         139.7089  141.4242  166.3464 C.ar    1  UNL1        0.0177
     28 C         139.2212  140.1342  166.9363 C.ar    1  UNL1        0.0015
     29 C         139.3618  139.8820  168.4083 C.ar    1  UNL1        0.0012
     30 C         139.9901  140.9200  169.2903 C.ar    1  UNL1        0.0140
     31 C         140.4778  142.2100  168.7004 C.ar    1  UNL1        0.0012
     32 C         140.3372  142.4621  167.2285 C.ar    1  UNL1        0.0015
     33 C         140.1307  140.6679  170.7623 C.2     1  UNL1        0.0729
     34 O         140.8125  141.6797  171.6348 O.co2   1  UNL1       -0.5446
     35 O         139.5893  139.4038  171.3617 O.co2   1  UNL1       -0.5446
     36 C         140.1967  146.4018  154.9760 C.3     1  UNL1        0.1183
     37 C         139.7014  147.8145  155.0689 C.ar    1  UNL1        0.0712
     38 N         138.8605  148.2393  156.2361 N.ar    1  UNL1       -0.2471
     39 C         138.3652  149.6522  156.3290 C.ar    1  UNL1        0.0985
     40 C         138.7108  150.6402  155.2546 C.ar    1  UNL1        0.0203
     41 C         139.5517  150.2155  154.0874 C.ar    1  UNL1       -0.0015
     42 C         140.0470  148.8027  153.9945 C.ar    1  UNL1       -0.0069
     43 C         140.8879  148.3779  152.8272 C.3     1  UNL1        0.0323
@<TRIPOS>UNITY_ATOM_ATTR
34 1
charge -1
@<TRIPOS>BOND
     1    19    20    1
     2    20    13    1
     3    13    14   ar
     4    14    15   ar
     5    15     1    1
     6     1     2   am
     7     2     3    2
     8     2     4   am
     9     4    21    1
    10    21    22   ar
    11    22    23   ar
    12    23    24   ar
    13    24    27    1
    14    27    28   ar
    15    28    29   ar
    16    29    30   ar
    17    30    33    1
    18    33    34   ar
    19    33    35   ar
    20    30    31   ar
    21    31    32   ar
    22    24    25   ar
    23    25    26   ar
    24     4     5   am
    25     5     6    2
    26     5     7    1
    27     7     8    1
    28     8     9    1
    29     9    10    1
    30    10    36    1
    31    36    37    1
    32    37    38   ar
    33    38    39   ar
    34    39    40   ar
    35    40    41   ar
    36    41    42   ar
    37    42    43    1
    38    10    11    1
    39    11    12    1
    40    15    16   ar
    41    16    17   ar
    42    17    18   ar
    43    18    13   ar
    44     7     1    1
    45    42    37   ar
    46    26    21   ar
    47    12     7    1
    48    32    27   ar
@<TRIPOS>MOLECULE
*****
 43 48 0 0 0
SMALL
GASTEIGER

@<TRIPOS>ATOM
      1 N         143.9069  141.1776  158.3915 N.am    1  UNL1       -0.2222
      2 C         143.7499  141.8371  159.7297 C.2     1  UNL1        0.3220
      3 O         144.1274  143.2493  160.0663 O.2     1  UNL1       -0.2512
      4 N         143.1492  140.8365  160.6720 N.am    1  UNL1       -0.1892
      5 C         142.9349  139.5586  159.9163 C.2     1  UNL1        0.2529
      6 O         142.3543  138.2923  160.4723 O.2     1  UNL1       -0.2724
      7 C         143.4032  139.7694  158.5069 C.3     1  UNL1        0.1391
      8 C         143.9083  140.1266  157.1405 C.3     1  UNL1        0.0449
      9 C         143.8782  139.1081  156.0398 C.3     1  UNL1        0.0746
     10 N         143.3429  137.7323  156.3055 N.3     1  UNL1       -0.2676
     11 C         142.8377  137.3750  157.6719 C.3     1  UNL1        0.0746
     12 C         142.8678  138.3936  158.7726 C.3     1  UNL1        0.0449
     13 C         146.5076  142.4101  155.6590 C.ar    1  UNL1        0.2293
     14 C         145.9456  141.7732  156.8954 C.ar    1  UNL1        0.0924
     15 C         144.4689  141.8144  157.1552 C.ar    1  UNL1        0.1453
     16 N         143.5542  142.4925  156.1787 N.ar    1  UNL1       -0.2084
     17 C         144.1161  143.1293  154.9424 C.ar    1  UNL1        0.2027
     18 N         145.5929  143.0881  154.6825 N.ar    1  UNL1       -0.1892
     19 C         148.4949  142.0976  154.0150 C.3     1  UNL1        0.2542
     20 O         147.9843  142.3689  155.3991 O.3     1  UNL1       -0.4560
     21 C         142.8205  141.0724  162.1163 C.ar    1  UNL1        0.0813
     22 C         143.8661  140.8527  163.1691 C.ar    1  UNL1        0.0185
     23 C         143.5374  141.0886  164.6135 C.ar    1  UNL1        0.0204
     24 C         142.1630  141.5442  165.0052 C.ar    1  UNL1        0.0814
     25 N         141.1173  141.7640  163.9524 N.ar    1  UNL1       -0.2425
     26 C         141.4461  141.5281  162.5080 C.ar    1  UNL1        0.1141
     27 C         141.8343  141.7801  166.4496 C.ar    1  UNL1        0.0177
     28 C         140.4163  141.6640  166.9247 C.ar    1  UNL1        0.0015
     29 C         140.0876  141.8999  168.3691 C.ar    1  UNL1        0.0012
     30 C         141.1770  142.2520  169.3383 C.ar    1  UNL1        0.0140
     31 C         142.5950  142.3681  168.8632 C.ar    1  UNL1        0.0012
     32 C         142.9237  142.1322  167.4189 C.ar    1  UNL1        0.0015
     33 C         140.8482  142.4879  170.7827 C.2     1  UNL1        0.0729
     34 O         139.5215  143.0749  171.1638 O.co2   1  UNL1       -0.5446
     35 O         141.8463  142.1367  171.8461 O.co2   1  UNL1       -0.5446
     36 C         143.3127  136.7137  155.2047 C.3     1  UNL1        0.1183
     37 C         143.0131  135.2780  155.5194 C.ar    1  UNL1        0.0712
     38 N         144.0081  134.4537  156.2813 N.ar    1  UNL1       -0.2471
     39 C         143.7084  133.0180  156.5959 C.ar    1  UNL1        0.0985
     40 C         142.4138  132.4066  156.1486 C.ar    1  UNL1        0.0203
     41 C         141.4188  133.2309  155.3867 C.ar    1  UNL1       -0.0015
     42 C         141.7184  134.6665  155.0720 C.ar    1  UNL1       -0.0069
     43 C         140.7234  135.4908  154.3101 C.3     1  UNL1        0.0323
@<TRIPOS>UNITY_ATOM_ATTR
34 1
charge -1
@<TRIPOS>BOND
     1    19    20    1
     2    20    13    1
     3    13    14   ar
     4    14    15   ar
     5    15     1    1
     6     1     2   am
     7     2     3    2
     8     2     4   am
     9     4    21    1
    10    21    22   ar
    11    22    23   ar
    12    23    24   ar
    13    24    27    1
    14    27    28   ar
    15    28    29   ar
    16    29    30   ar
    17    30    33    1
    18    33    34   ar
    19    33    35   ar
    20    30    31   ar
    21    31    32   ar
    22    24    25   ar
    23    25    26   ar
    24     4     5   am
    25     5     6    2
    26     5     7    1
    27     7     8    1
    28     8     9    1
    29     9    10    1
    30    10    36    1
    31    36    37    1
    32    37    38   ar
    33    38    39   ar
    34    39    40   ar
    35    40    41   ar
    36    41    42   ar
    37    42    43    1
    38    10    11    1
    39    11    12    1
    40    15    16   ar
    41    16    17   ar
    42    17    18   ar
    43    18    13   ar
    44     7     1    1
    45    42    37   ar
    46    26    21   ar
    47    12     7    1
    48    32    27   ar
@<TRIPOS>MOLECULE
*****
 43 48 0 0 0
SMALL
GASTEIGER

@<TRIPOS>ATOM
      1 N         138.8109  141.1267  158.6276 N.am    1  UNL1       -0.2222
      2 C         138.8107  141.7067  160.0111 C.2     1  UNL1        0.3220
      3 O         137.8666  142.7508  160.5292 O.2     1  UNL1       -0.2512
      4 N         139.9204  141.0592  160.7853 N.am    1  UNL1       -0.1892
      5 C         140.6064  140.0791  159.8805 C.2     1  UNL1        0.2529
      6 O         141.7732  139.2098  160.2450 O.2     1  UNL1       -0.2724
      7 C         139.9207  140.1208  158.5469 C.3     1  UNL1        0.1391
      8 C         139.1401  140.2715  157.2750 C.3     1  UNL1        0.0449
      9 C         139.5009  139.4513  156.0720 C.3     1  UNL1        0.0746
     10 N         140.6423  138.4805  156.1410 N.3     1  UNL1       -0.2676
     11 C         141.4229  138.3298  157.4130 C.3     1  UNL1        0.0746
     12 C         141.0621  139.1500  158.6159 C.3     1  UNL1        0.0449
     13 C         137.1961  143.0537  155.5570 C.ar    1  UNL1        0.2293
     14 C         138.1400  142.6913  156.6651 C.ar    1  UNL1        0.0924
     15 C         137.8671  141.4891  157.5196 C.ar    1  UNL1        0.1453
     16 N         136.6504  140.6493  157.2660 N.ar    1  UNL1       -0.2084
     17 C         135.7065  141.0116  156.1580 C.ar    1  UNL1        0.2027
     18 N         135.9794  142.2138  155.3034 N.ar    1  UNL1       -0.1892
     19 C         138.1105  145.4721  155.3019 C.3     1  UNL1        0.2542
     20 O         137.4689  144.2559  154.7024 O.3     1  UNL1       -0.4560
     21 C         140.2807  141.3421  162.2136 C.ar    1  UNL1        0.0813
     22 C         140.1750  140.2562  163.2430 C.ar    1  UNL1        0.0185
     23 C         140.5354  140.5391  164.6713 C.ar    1  UNL1        0.0204
     24 C         141.0014  141.9079  165.0702 C.ar    1  UNL1        0.0814
     25 N         141.1071  142.9939  164.0408 N.ar    1  UNL1       -0.2425
     26 C         140.7467  142.7109  162.6125 C.ar    1  UNL1        0.1141
     27 C         141.3618  142.1909  166.4986 C.ar    1  UNL1        0.0177
     28 C         140.3447  142.7898  167.4242 C.ar    1  UNL1        0.0015
     29 C         140.7050  143.0727  168.8525 C.ar    1  UNL1        0.0012
     30 C         142.0825  142.7567  169.3551 C.ar    1  UNL1        0.0140
     31 C         143.0997  142.1578  168.4295 C.ar    1  UNL1        0.0012
     32 C         142.7393  141.8749  167.0013 C.ar    1  UNL1        0.0015
     33 C         142.4429  143.0396  170.7835 C.2     1  UNL1        0.0729
     34 O         141.7329  142.3215  171.8925 O.co2   1  UNL1       -0.5446
     35 O         143.5134  144.0408  171.1027 O.co2   1  UNL1       -0.5446
     36 C         141.0031  137.6603  154.9380 C.3     1  UNL1        0.1183
     37 C         141.7021  136.3443  155.1096 C.ar    1  UNL1        0.0712
     38 N         140.9050  135.0759  155.1851 N.ar    1  UNL1       -0.2471
     39 C         141.6041  133.7599  155.3568 C.ar    1  UNL1        0.0985
     40 C         143.1002  133.7123  155.4529 C.ar    1  UNL1        0.0203
     41 C         143.8973  134.9807  155.3775 C.ar    1  UNL1       -0.0015
     42 C         143.1983  136.2967  155.2058 C.ar    1  UNL1       -0.0069
     43 C         143.9954  137.5652  155.1304 C.3     1  UNL1        0.0323
@<TRIPOS>UNITY_ATOM_ATTR
34 1
charge -1
@<TRIPOS>BOND
     1    19    20    1
     2    20    13    1
     3    13    14   ar
     4    14    15   ar
     5    15     1    1
     6     1     2   am
     7     2     3    2
     8     2     4   am
     9     4    21    1
    10    21    22   ar
    11    22    23   ar
    12    23    24   ar
    13    24    27    1
    14    27    28   ar
    15    28    29   ar
    16    29    30   ar
    17    30    33    1
    18    33    34   ar
    19    33    35   ar
    20    30    31   ar
    21    31    32   ar
    22    24    25   ar
    23    25    26   ar
    24     4     5   am
    25     5     6    2
    26     5     7    1
    27     7     8    1
    28     8     9    1
    29     9    10    1
    30    10    36    1
    31    36    37    1
    32    37    38   ar
    33    38    39   ar
    34    39    40   ar
    35    40    41   ar
    36    41    42   ar
    37    42    43    1
    38    10    11    1
    39    11    12    1
    40    15    16   ar
    41    16    17   ar
    42    17    18   ar
    43    18    13   ar
    44     7     1    1
    45    42    37   ar
    46    26    21   ar
    47    12     7    1
    48    32    27   ar
@<TRIPOS>MOLECULE
*****
 43 48 0 0 0
SMALL
GASTEIGER

@<TRIPOS>ATOM
      1 N         139.7722  140.5186  157.2444 N.am    1  UNL1       -0.2222
      2 C         139.8725  141.7424  156.3827 C.2     1  UNL1        0.3220
      3 O         140.3582  141.7845  154.9642 O.2     1  UNL1       -0.2512
      4 N         139.4018  142.9167  157.1888 N.am    1  UNL1       -0.1892
      5 C         139.0106  142.4186  158.5485 C.2     1  UNL1        0.2529
      6 O         138.4830  143.2556  159.6759 O.2     1  UNL1       -0.2724
      7 C         139.2395  140.9365  158.5830 C.3     1  UNL1        0.1391
      8 C         139.5180  139.4671  158.4689 C.3     1  UNL1        0.0449
      9 C         139.2596  138.5619  159.6367 C.3     1  UNL1        0.0746
     10 N         138.7227  139.1263  160.9186 N.3     1  UNL1       -0.2676
     11 C         138.4443  140.5957  161.0327 C.3     1  UNL1        0.0746
     12 C         138.7027  141.5009  159.8649 C.3     1  UNL1        0.0449
     13 C         141.9122  137.2345  156.6243 C.ar    1  UNL1        0.2293
     14 C         141.5444  138.6310  157.0299 C.ar    1  UNL1        0.0924
     15 C         140.1400  139.1222  156.8388 C.ar    1  UNL1        0.1453
     16 N         139.1035  138.2169  156.2420 N.ar    1  UNL1       -0.2084
     17 C         139.4713  136.8205  155.8363 C.ar    1  UNL1        0.2027
     18 N         140.8757  136.3292  156.0275 N.ar    1  UNL1       -0.1892
     19 C         144.0018  135.9853  155.7173 C.3     1  UNL1        0.2542
     20 O         143.3165  136.7432  156.8154 O.3     1  UNL1       -0.4560
     21 C         139.3341  144.3391  156.7177 C.ar    1  UNL1        0.0813
     22 C         138.4115  144.7147  155.5963 C.ar    1  UNL1        0.0185
     23 C         138.3438  146.1373  155.1253 C.ar    1  UNL1        0.0204
     24 C         139.1988  147.1842  155.7756 C.ar    1  UNL1        0.0814
     25 N         140.1215  146.8085  156.8971 N.ar    1  UNL1       -0.2425
     26 C         140.1891  145.3860  157.3681 C.ar    1  UNL1        0.1141
     27 C         139.1312  148.6067  155.3046 C.ar    1  UNL1        0.0177
     28 C         138.5274  149.6604  156.1850 C.ar    1  UNL1        0.0015
     29 C         138.4598  151.0829  155.7140 C.ar    1  UNL1        0.0012
     30 C         138.9959  151.4516  154.3624 C.ar    1  UNL1        0.0140
     31 C         139.5997  150.3979  153.4820 C.ar    1  UNL1        0.0012
     32 C         139.6673  148.9755  153.9530 C.ar    1  UNL1        0.0015
     33 C         138.9283  152.8741  153.8914 C.2     1  UNL1        0.0729
     34 O         138.2778  153.1997  152.5796 O.co2   1  UNL1       -0.5446
     35 O         139.5113  153.9712  154.7322 O.co2   1  UNL1       -0.5446
     36 C         138.4643  138.2210  162.0865 C.3     1  UNL1        0.1183
     37 C         138.9118  138.6232  163.4605 C.ar    1  UNL1        0.0712
     38 N         138.0417  139.5074  164.3038 N.ar    1  UNL1       -0.2471
     39 C         138.4891  139.9096  165.6779 C.ar    1  UNL1        0.0985
     40 C         139.8066  139.4276  166.2087 C.ar    1  UNL1        0.0203
     41 C         140.6767  138.5434  165.3654 C.ar    1  UNL1       -0.0015
     42 C         140.2293  138.1412  163.9914 C.ar    1  UNL1       -0.0069
     43 C         141.0994  137.2570  163.1481 C.3     1  UNL1        0.0323
@<TRIPOS>UNITY_ATOM_ATTR
34 1
charge -1
@<TRIPOS>BOND
     1    19    20    1
     2    20    13    1
     3    13    14   ar
     4    14    15   ar
     5    15     1    1
     6     1     2   am
     7     2     3    2
     8     2     4   am
     9     4    21    1
    10    21    22   ar
    11    22    23   ar
    12    23    24   ar
    13    24    27    1
    14    27    28   ar
    15    28    29   ar
    16    29    30   ar
    17    30    33    1
    18    33    34   ar
    19    33    35   ar
    20    30    31   ar
    21    31    32   ar
    22    24    25   ar
    23    25    26   ar
    24     4     5   am
    25     5     6    2
    26     5     7    1
    27     7     8    1
    28     8     9    1
    29     9    10    1
    30    10    36    1
    31    36    37    1
    32    37    38   ar
    33    38    39   ar
    34    39    40   ar
    35    40    41   ar
    36    41    42   ar
    37    42    43    1
    38    10    11    1
    39    11    12    1
    40    15    16   ar
    41    16    17   ar
    42    17    18   ar
    43    18    13   ar
    44     7     1    1
    45    42    37   ar
    46    26    21   ar
    47    12     7    1
    48    32    27   ar
@<TRIPOS>MOLECULE
*****
 43 48 0 0 0
SMALL
GASTEIGER

@<TRIPOS>ATOM
      1 N         138.5579  142.2718  158.0662 N.am    1  UNL1       -0.2222
      2 C         138.4786  141.6230  159.4165 C.2     1  UNL1        0.3220
      3 O         137.8160  140.3139  159.7280 O.2     1  UNL1       -0.2512
      4 N         139.1782  142.5133  160.4003 N.am    1  UNL1       -0.1892
      5 C         139.6899  143.7122  159.6582 C.2     1  UNL1        0.2529
      6 O         140.4513  144.8591  160.2539 O.2     1  UNL1       -0.2724
      7 C         139.3065  143.5630  158.2156 C.3     1  UNL1        0.1391
      8 C         138.8560  143.2776  156.8137 C.3     1  UNL1        0.0449
      9 C         139.1667  144.2490  155.7138 C.3     1  UNL1        0.0746
     10 N         139.9280  145.5057  156.0158 N.3     1  UNL1       -0.2676
     11 C         140.3785  145.7910  157.4178 C.3     1  UNL1        0.0746
     12 C         140.0678  144.8197  158.5177 C.3     1  UNL1        0.0449
     13 C         138.2299  140.2373  154.6746 C.ar    1  UNL1        0.2293
     14 C         138.7993  140.7838  155.9502 C.ar    1  UNL1        0.0924
     15 C         137.9885  141.7252  156.7907 C.ar    1  UNL1        0.1453
     16 N         136.6084  142.1201  156.3556 N.ar    1  UNL1       -0.2084
     17 C         136.0390  141.5736  155.0801 C.ar    1  UNL1        0.2027
     18 N         136.8498  140.6322  154.2395 N.ar    1  UNL1       -0.1892
     19 C         138.7858  139.1985  152.3591 C.3     1  UNL1        0.2542
     20 O         139.0406  139.2959  153.8341 O.3     1  UNL1       -0.4560
     21 C         139.3381  142.2508  161.8684 C.ar    1  UNL1        0.0813
     22 C         138.1264  142.0957  162.7389 C.ar    1  UNL1        0.0185
     23 C         138.2863  141.8331  164.2070 C.ar    1  UNL1        0.0204
     24 C         139.6579  141.7256  164.8047 C.ar    1  UNL1        0.0814
     25 N         140.8696  141.8807  163.9342 N.ar    1  UNL1       -0.2425
     26 C         140.7097  142.1433  162.4661 C.ar    1  UNL1        0.1141
     27 C         139.8177  141.4631  166.2729 C.ar    1  UNL1        0.0177
     28 C         140.4974  142.4757  167.1463 C.ar    1  UNL1        0.0015
     29 C         140.6573  142.2131  168.6144 C.ar    1  UNL1        0.0012
     30 C         140.1375  140.9379  169.2092 C.ar    1  UNL1        0.0140
     31 C         139.4578  139.9253  168.3358 C.ar    1  UNL1        0.0012
     32 C         139.2979  140.1879  166.8678 C.ar    1  UNL1        0.0015
     33 C         140.2973  140.6754  170.6774 C.2     1  UNL1        0.0729
     34 O         141.1628  141.5740  171.5101 O.co2   1  UNL1       -0.5446
     35 O         139.5917  139.5141  171.3128 O.co2   1  UNL1       -0.5446
     36 C         140.2387  146.4771  154.9158 C.3     1  UNL1        0.1183
     37 C         139.7312  147.8864  154.9942 C.ar    1  UNL1        0.0712
     38 N         138.8639  148.3084  156.1430 N.ar    1  UNL1       -0.2471
     39 C         138.3563  149.7178  156.2214 C.ar    1  UNL1        0.0985
     40 C         138.7162  150.7051  155.1511 C.ar    1  UNL1        0.0203
     41 C         139.5835  150.2832  154.0023 C.ar    1  UNL1       -0.0015
     42 C         140.0910  148.8738  153.9239 C.ar    1  UNL1       -0.0069
     43 C         140.9584  148.4518  152.7751 C.3     1  UNL1        0.0323
@<TRIPOS>UNITY_ATOM_ATTR
34 1
charge -1
@<TRIPOS>BOND
     1    19    20    1
     2    20    13    1
     3    13    14   ar
     4    14    15   ar
     5    15     1    1
     6     1     2   am
     7     2     3    2
     8     2     4   am
     9     4    21    1
    10    21    22   ar
    11    22    23   ar
    12    23    24   ar
    13    24    27    1
    14    27    28   ar
    15    28    29   ar
    16    29    30   ar
    17    30    33    1
    18    33    34   ar
    19    33    35   ar
    20    30    31   ar
    21    31    32   ar
    22    24    25   ar
    23    25    26   ar
    24     4     5   am
    25     5     6    2
    26     5     7    1
    27     7     8    1
    28     8     9    1
    29     9    10    1
    30    10    36    1
    31    36    37    1
    32    37    38   ar
    33    38    39   ar
    34    39    40   ar
    35    40    41   ar
    36    41    42   ar
    37    42    43    1
    38    10    11    1
    39    11    12    1
    40    15    16   ar
    41    16    17   ar
    42    17    18   ar
    43    18    13   ar
    44     7     1    1
    45    42    37   ar
    46    26    21   ar
    47    12     7    1
    48    32    27   ar
@<TRIPOS>MOLECULE
*****
 43 48 0 0 0
SMALL
GASTEIGER

@<TRIPOS>ATOM
      1 N         141.9494  138.5896  158.5900 N.am    1  UNL1       -0.2222
      2 C         141.3323  138.6223  159.9569 C.2     1  UNL1        0.3220
      3 O         140.1913  137.7712  160.4297 O.2     1  UNL1       -0.2512
      4 N         142.0568  139.6555  160.7679 N.am    1  UNL1       -0.1892
      5 C         143.1215  140.2614  159.9023 C.2     1  UNL1        0.2529
      6 O         144.0837  141.3372  160.3108 O.2     1  UNL1       -0.2724
      7 C         143.0551  139.6027  158.5562 C.3     1  UNL1        0.1391
      8 C         142.8698  138.8586  157.2671 C.3     1  UNL1        0.0449
      9 C         143.7539  139.1600  156.0934 C.3     1  UNL1        0.0746
     10 N         144.8233  140.2054  156.2089 N.3     1  UNL1       -0.2676
     11 C         145.0087  140.9495  157.4981 C.3     1  UNL1        0.0746
     12 C         144.1245  140.6481  158.6717 C.3     1  UNL1        0.0449
     13 C         141.8491  135.5255  156.0700 C.ar    1  UNL1        0.2293
     14 C         142.2649  136.4150  157.2039 C.ar    1  UNL1        0.0924
     15 C         141.5336  137.7001  157.4560 C.ar    1  UNL1        0.1453
     16 N         140.3865  138.0958  156.5741 N.ar    1  UNL1       -0.2084
     17 C         139.9707  137.2064  155.4402 C.ar    1  UNL1        0.2027
     18 N         140.7021  135.9211  155.1881 N.ar    1  UNL1       -0.1892
     19 C         143.0537  133.4078  156.9723 C.3     1  UNL1        0.2542
     20 O         142.5804  134.2403  155.8178 O.3     1  UNL1       -0.4560
     21 C         141.7674  140.0190  162.1940 C.ar    1  UNL1        0.0813
     22 C         142.7886  139.7489  163.2590 C.ar    1  UNL1        0.0185
     23 C         142.4991  140.1124  164.6852 C.ar    1  UNL1        0.0204
     24 C         141.1884  140.7460  165.0465 C.ar    1  UNL1        0.0814
     25 N         140.1671  141.0163  163.9815 N.ar    1  UNL1       -0.2425
     26 C         140.4567  140.6527  162.5553 C.ar    1  UNL1        0.1141
     27 C         140.8990  141.1096  166.4727 C.ar    1  UNL1        0.0177
     28 C         141.0075  142.5373  166.9197 C.ar    1  UNL1        0.0015
     29 C         140.7181  142.9008  168.3459 C.ar    1  UNL1        0.0012
     30 C         140.3200  141.8365  169.3251 C.ar    1  UNL1        0.0140
     31 C         140.2115  140.4087  168.8781 C.ar    1  UNL1        0.0012
     32 C         140.5009  140.0452  167.4520 C.ar    1  UNL1        0.0015
     33 C         140.0306  142.2000  170.7513 C.2     1  UNL1        0.0729
     34 O         139.2065  143.4138  171.0635 O.co2   1  UNL1       -0.5446
     35 O         140.5652  141.3496  171.8654 O.co2   1  UNL1       -0.5446
     36 C         145.7075  140.5068  155.0352 C.3     1  UNL1        0.1183
     37 C         145.8493  141.9175  154.5457 C.ar    1  UNL1        0.0712
     38 N         144.7005  142.5908  153.8552 N.ar    1  UNL1       -0.2471
     39 C         144.8423  144.0017  153.3657 C.ar    1  UNL1        0.0985
     40 C         146.1329  144.7391  153.5667 C.ar    1  UNL1        0.0203
     41 C         147.2817  144.0658  154.2573 C.ar    1  UNL1       -0.0015
     42 C         147.1399  142.6550  154.7468 C.ar    1  UNL1       -0.0069
     43 C         148.2887  141.9817  155.4373 C.3     1  UNL1        0.0323
@<TRIPOS>UNITY_ATOM_ATTR
34 1
charge -1
@<TRIPOS>BOND
     1    19    20    1
     2    20    13    1
     3    13    14   ar
     4    14    15   ar
     5    15     1    1
     6     1     2   am
     7     2     3    2
     8     2     4   am
     9     4    21    1
    10    21    22   ar
    11    22    23   ar
    12    23    24   ar
    13    24    27    1
    14    27    28   ar
    15    28    29   ar
    16    29    30   ar
    17    30    33    1
    18    33    34   ar
    19    33    35   ar
    20    30    31   ar
    21    31    32   ar
    22    24    25   ar
    23    25    26   ar
    24     4     5   am
    25     5     6    2
    26     5     7    1
    27     7     8    1
    28     8     9    1
    29     9    10    1
    30    10    36    1
    31    36    37    1
    32    37    38   ar
    33    38    39   ar
    34    39    40   ar
    35    40    41   ar
    36    41    42   ar
    37    42    43    1
    38    10    11    1
    39    11    12    1
    40    15    16   ar
    41    16    17   ar
    42    17    18   ar
    43    18    13   ar
    44     7     1    1
    45    42    37   ar
    46    26    21   ar
    47    12     7    1
    48    32    27   ar
@<TRIPOS>MOLECULE
*****
 43 48 0 0 0
SMALL
GASTEIGER

@<TRIPOS>ATOM
      1 N         138.5803  141.0603  158.4008 N.am    1  UNL1       -0.2222
      2 C         138.5005  141.6100  159.7942 C.2     1  UNL1        0.3220
      3 O         137.7773  142.8566  160.2102 O.2     1  UNL1       -0.2512
      4 N         139.2710  140.6942  160.6986 N.am    1  UNL1       -0.1892
      5 C         139.8269  139.5786  159.8641 C.2     1  UNL1        0.2529
      6 O         140.6629  138.4371  160.3622 O.2     1  UNL1       -0.2724
      7 C         139.4000  139.8048  158.4439 C.3     1  UNL1        0.1391
      8 C         138.8999  140.1601  157.0752 C.3     1  UNL1        0.0449
      9 C         139.2341  139.2846  155.9040 C.3     1  UNL1        0.0746
     10 N         140.0684  138.0538  156.1015 N.3     1  UNL1       -0.2676
     11 C         140.5685  137.6985  157.4703 C.3     1  UNL1        0.0746
     12 C         140.2343  138.5740  158.6415 C.3     1  UNL1        0.0449
     13 C         135.9474  141.8331  155.5337 C.ar    1  UNL1        0.2293
     14 C         136.5769  141.2328  156.7557 C.ar    1  UNL1        0.0924
     15 C         137.9508  141.6607  157.1788 C.ar    1  UNL1        0.1453
     16 N         138.6954  142.6890  156.3798 N.ar    1  UNL1       -0.2084
     17 C         138.0660  143.2894  155.1579 C.ar    1  UNL1        0.2027
     18 N         136.6919  142.8615  154.7348 N.ar    1  UNL1       -0.1892
     19 C         133.8655  140.3128  155.8557 C.3     1  UNL1        0.2542
     20 O         134.5734  141.4053  155.1105 O.3     1  UNL1       -0.4560
     21 C         139.4535  140.8642  162.1776 C.ar    1  UNL1        0.0813
     22 C         138.2789  140.7219  163.0995 C.ar    1  UNL1        0.0185
     23 C         138.4614  140.8919  164.5786 C.ar    1  UNL1        0.0204
     24 C         139.8185  141.2043  165.1359 C.ar    1  UNL1        0.0814
     25 N         140.9933  141.3467  164.2139 N.ar    1  UNL1       -0.2425
     26 C         140.8107  141.1766  162.7348 C.ar    1  UNL1        0.1141
     27 C         140.0010  141.3743  166.6150 C.ar    1  UNL1        0.0177
     28 C         140.4578  142.6918  167.1678 C.ar    1  UNL1        0.0015
     29 C         140.6403  142.8618  168.6469 C.ar    1  UNL1        0.0012
     30 C         140.3660  141.7143  169.5732 C.ar    1  UNL1        0.0140
     31 C         139.9093  140.3968  169.0204 C.ar    1  UNL1        0.0012
     32 C         139.7268  140.2268  167.5413 C.ar    1  UNL1        0.0015
     33 C         140.5486  141.8843  171.0523 C.2     1  UNL1        0.0729
     34 O         139.6937  142.8593  171.8063 O.co2   1  UNL1       -0.5446
     35 O         141.5860  141.0792  171.7774 O.co2   1  UNL1       -0.5446
     36 C         140.4026  137.1783  154.9302 C.3     1  UNL1        0.1183
     37 C         141.4101  136.0773  155.0802 C.ar    1  UNL1        0.0712
     38 N         140.9517  134.6592  155.2501 N.ar    1  UNL1       -0.2471
     39 C         141.9594  133.5581  155.4000 C.ar    1  UNL1        0.0985
     40 C         143.4253  133.8752  155.3801 C.ar    1  UNL1        0.0203
     41 C         143.8837  135.2933  155.2102 C.ar    1  UNL1       -0.0015
     42 C         142.8761  136.3943  155.0602 C.ar    1  UNL1       -0.0069
     43 C         143.3345  137.8124  154.8903 C.3     1  UNL1        0.0323
@<TRIPOS>UNITY_ATOM_ATTR
34 1
charge -1
@<TRIPOS>BOND
     1    19    20    1
     2    20    13    1
     3    13    14   ar
     4    14    15   ar
     5    15     1    1
     6     1     2   am
     7     2     3    2
     8     2     4   am
     9     4    21    1
    10    21    22   ar
    11    22    23   ar
    12    23    24   ar
    13    24    27    1
    14    27    28   ar
    15    28    29   ar
    16    29    30   ar
    17    30    33    1
    18    33    34   ar
    19    33    35   ar
    20    30    31   ar
    21    31    32   ar
    22    24    25   ar
    23    25    26   ar
    24     4     5   am
    25     5     6    2
    26     5     7    1
    27     7     8    1
    28     8     9    1
    29     9    10    1
    30    10    36    1
    31    36    37    1
    32    37    38   ar
    33    38    39   ar
    34    39    40   ar
    35    40    41   ar
    36    41    42   ar
    37    42    43    1
    38    10    11    1
    39    11    12    1
    40    15    16   ar
    41    16    17   ar
    42    17    18   ar
    43    18    13   ar
    44     7     1    1
    45    42    37   ar
    46    26    21   ar
    47    12     7    1
    48    32    27   ar
@<TRIPOS>MOLECULE
*****
 43 48 0 0 0
SMALL
GASTEIGER

@<TRIPOS>ATOM
      1 N         141.8618  138.5522  158.5861 N.am    1  UNL1       -0.2222
      2 C         141.2585  138.5890  159.9591 C.2     1  UNL1        0.3220
      3 O         140.1247  137.7367  160.4470 O.2     1  UNL1       -0.2512
      4 N         141.9881  139.6278  160.7583 N.am    1  UNL1       -0.1892
      5 C         143.0423  140.2330  159.8794 C.2     1  UNL1        0.2529
      6 O         144.0054  141.3132  160.2736 O.2     1  UNL1       -0.2724
      7 C         142.9642  139.5683  158.5369 C.3     1  UNL1        0.1391
      8 C         142.7680  138.8181  157.2528 C.3     1  UNL1        0.0449
      9 C         143.6393  139.1170  156.0690 C.3     1  UNL1        0.0746
     10 N         144.7068  140.1660  156.1693 N.3     1  UNL1       -0.2676
     11 C         144.9030  140.9161  157.4533 C.3     1  UNL1        0.0746
     12 C         144.0317  140.6172  158.6371 C.3     1  UNL1        0.0449
     13 C         139.7678  137.0722  155.5572 C.ar    1  UNL1        0.2293
     14 C         140.1924  137.9678  156.6831 C.ar    1  UNL1        0.0924
     15 C         141.4371  137.6567  157.4602 C.ar    1  UNL1        0.1453
     16 N         142.2572  136.4501  157.1114 N.ar    1  UNL1       -0.2084
     17 C         141.8327  135.5546  155.9856 C.ar    1  UNL1        0.2027
     18 N         140.5879  135.8656  155.2084 N.ar    1  UNL1       -0.1892
     19 C         138.5052  137.2063  153.2906 C.3     1  UNL1        0.2542
     20 O         138.5231  137.3832  154.7800 O.3     1  UNL1       -0.4560
     21 C         141.7121  139.9965  162.1857 C.ar    1  UNL1        0.0813
     22 C         142.6864  139.6156  163.2606 C.ar    1  UNL1        0.0185
     23 C         142.4103  139.9844  164.6882 C.ar    1  UNL1        0.0204
     24 C         141.1599  140.7341  165.0408 C.ar    1  UNL1        0.0814
     25 N         140.1854  141.1150  163.9658 N.ar    1  UNL1       -0.2425
     26 C         140.4616  140.7462  162.5383 C.ar    1  UNL1        0.1141
     27 C         140.8838  141.1029  166.4683 C.ar    1  UNL1        0.0177
     28 C         140.5115  140.0399  167.4590 C.ar    1  UNL1        0.0015
     29 C         140.2354  140.4087  168.8865 C.ar    1  UNL1        0.0012
     30 C         140.3316  141.8405  169.3232 C.ar    1  UNL1        0.0140
     31 C         140.7039  142.9035  168.3325 C.ar    1  UNL1        0.0012
     32 C         140.9800  142.5347  166.9051 C.ar    1  UNL1        0.0015
     33 C         140.0556  142.2093  170.7507 C.2     1  UNL1        0.0729
     34 O         140.6233  141.3786  171.8632 O.co2   1  UNL1       -0.5446
     35 O         139.2117  143.4089  171.0657 O.co2   1  UNL1       -0.5446
     36 C         145.5782  140.4648  154.9854 C.3     1  UNL1        0.1183
     37 C         145.7650  141.8818  154.5303 C.ar    1  UNL1        0.0712
     38 N         144.6315  142.6152  153.8766 N.ar    1  UNL1       -0.2471
     39 C         144.8183  144.0323  153.4214 C.ar    1  UNL1        0.0985
     40 C         146.1386  144.7159  153.6200 C.ar    1  UNL1        0.0203
     41 C         147.2721  143.9825  154.2737 C.ar    1  UNL1       -0.0015
     42 C         147.0853  142.5655  154.7288 C.ar    1  UNL1       -0.0069
     43 C         148.2188  141.8321  155.3825 C.3     1  UNL1        0.0323
@<TRIPOS>UNITY_ATOM_ATTR
34 1
charge -1
@<TRIPOS>BOND
     1    19    20    1
     2    20    13    1
     3    13    14   ar
     4    14    15   ar
     5    15     1    1
     6     1     2   am
     7     2     3    2
     8     2     4   am
     9     4    21    1
    10    21    22   ar
    11    22    23   ar
    12    23    24   ar
    13    24    27    1
    14    27    28   ar
    15    28    29   ar
    16    29    30   ar
    17    30    33    1
    18    33    34   ar
    19    33    35   ar
    20    30    31   ar
    21    31    32   ar
    22    24    25   ar
    23    25    26   ar
    24     4     5   am
    25     5     6    2
    26     5     7    1
    27     7     8    1
    28     8     9    1
    29     9    10    1
    30    10    36    1
    31    36    37    1
    32    37    38   ar
    33    38    39   ar
    34    39    40   ar
    35    40    41   ar
    36    41    42   ar
    37    42    43    1
    38    10    11    1
    39    11    12    1
    40    15    16   ar
    41    16    17   ar
    42    17    18   ar
    43    18    13   ar
    44     7     1    1
    45    42    37   ar
    46    26    21   ar
    47    12     7    1
    48    32    27   ar
@<TRIPOS>MOLECULE
*****
 43 48 0 0 0
SMALL
GASTEIGER

@<TRIPOS>ATOM
      1 N         142.1290  138.4991  158.5691 N.am    1  UNL1       -0.2222
      2 C         142.6412  138.7528  159.9561 C.2     1  UNL1        0.3220
      3 O         143.9670  138.3109  160.5009 O.2     1  UNL1       -0.2512
      4 N         141.5946  139.5260  160.7024 N.am    1  UNL1       -0.1892
      5 C         140.4357  139.7502  159.7768 C.2     1  UNL1        0.2529
      6 O         139.1690  140.4807  160.1109 O.2     1  UNL1       -0.2724
      7 C         140.7660  139.1155  158.4583 C.3     1  UNL1        0.1391
      8 C         141.2331  138.4382  157.2042 C.3     1  UNL1        0.0449
      9 C         140.3546  138.4227  155.9885 C.3     1  UNL1        0.0746
     10 N         139.0090  139.0845  156.0270 N.3     1  UNL1       -0.2676
     11 C         138.5420  139.7618  157.2811 C.3     1  UNL1        0.0746
     12 C         139.4205  139.7773  158.4968 C.3     1  UNL1        0.0449
     13 C         143.4933  135.5229  156.3262 C.ar    1  UNL1        0.2293
     14 C         142.7695  136.2631  157.4117 C.ar    1  UNL1        0.0924
     15 C         142.8529  137.7590  157.4837 C.ar    1  UNL1        0.1453
     16 N         143.6601  138.5148  156.4702 N.ar    1  UNL1       -0.2084
     17 C         144.3839  137.7748  155.3847 C.ar    1  UNL1        0.2027
     18 N         144.3005  136.2787  155.3127 N.ar    1  UNL1       -0.1892
     19 C         144.0555  133.1879  157.3167 C.3     1  UNL1        0.2542
     20 O         143.4099  134.0270  156.2542 O.3     1  UNL1       -0.4560
     21 C         141.6902  139.9930  162.1246 C.ar    1  UNL1        0.0813
     22 C         142.8552  140.8304  162.5623 C.ar    1  UNL1        0.0185
     23 C         142.9507  141.2974  163.9846 C.ar    1  UNL1        0.0204
     24 C         141.8813  140.9271  164.9691 C.ar    1  UNL1        0.0814
     25 N         140.7163  140.0897  164.5313 N.ar    1  UNL1       -0.2425
     26 C         140.6208  139.6227  163.1091 C.ar    1  UNL1        0.1141
     27 C         141.9769  141.3941  166.3913 C.ar    1  UNL1        0.0177
     28 C         140.7984  141.2516  167.3083 C.ar    1  UNL1        0.0015
     29 C         140.8940  141.7186  168.7306 C.ar    1  UNL1        0.0012
     30 C         142.1681  142.3282  169.2357 C.ar    1  UNL1        0.0140
     31 C         143.3466  142.4707  168.3187 C.ar    1  UNL1        0.0012
     32 C         143.2510  142.0037  166.8966 C.ar    1  UNL1        0.0015
     33 C         142.2637  142.7952  170.6580 C.2     1  UNL1        0.0729
     34 O         141.3824  142.1864  171.7081 O.co2   1  UNL1       -0.5446
     35 O         143.2405  143.8711  171.0301 O.co2   1  UNL1       -0.5446
     36 C         138.1305  139.0690  154.8112 C.3     1  UNL1        0.1183
     37 C         136.7968  139.7547  154.8407 C.ar    1  UNL1        0.0712
     38 N         135.5736  138.9980  155.2664 N.ar    1  UNL1       -0.2471
     39 C         134.2399  139.6838  155.2959 C.ar    1  UNL1        0.0985
     40 C         134.1294  141.1263  154.8999 C.ar    1  UNL1        0.0203
     41 C         135.3526  141.8831  154.4743 C.ar    1  UNL1       -0.0015
     42 C         136.6863  141.1973  154.4447 C.ar    1  UNL1       -0.0069
     43 C         137.9095  141.9541  154.0190 C.3     1  UNL1        0.0323
@<TRIPOS>UNITY_ATOM_ATTR
34 1
charge -1
@<TRIPOS>BOND
     1    19    20    1
     2    20    13    1
     3    13    14   ar
     4    14    15   ar
     5    15     1    1
     6     1     2   am
     7     2     3    2
     8     2     4   am
     9     4    21    1
    10    21    22   ar
    11    22    23   ar
    12    23    24   ar
    13    24    27    1
    14    27    28   ar
    15    28    29   ar
    16    29    30   ar
    17    30    33    1
    18    33    34   ar
    19    33    35   ar
    20    30    31   ar
    21    31    32   ar
    22    24    25   ar
    23    25    26   ar
    24     4     5   am
    25     5     6    2
    26     5     7    1
    27     7     8    1
    28     8     9    1
    29     9    10    1
    30    10    36    1
    31    36    37    1
    32    37    38   ar
    33    38    39   ar
    34    39    40   ar
    35    40    41   ar
    36    41    42   ar
    37    42    43    1
    38    10    11    1
    39    11    12    1
    40    15    16   ar
    41    16    17   ar
    42    17    18   ar
    43    18    13   ar
    44     7     1    1
    45    42    37   ar
    46    26    21   ar
    47    12     7    1
    48    32    27   ar
