@<TRIPOS>MOLECULE
*****
 41 47 0 0 0
SMALL
GASTEIGER

@<TRIPOS>ATOM
      1 C         137.7247  139.5327  161.8771 C.3     1  UNL1        0.0700
      2 C         137.6380  140.6620  162.8605 C.3     1  UNL1        0.0193
      3 C         138.2292  140.5104  164.2307 C.3     1  UNL1        0.0287
      4 C         138.9071  139.2293  164.6175 C.3     1  UNL1        0.0955
      5 C         138.9937  138.1000  163.6341 C.3     1  UNL1        0.0287
      6 C         138.4025  138.2518  162.2639 C.3     1  UNL1        0.0193
      7 O         138.5980  139.2656  163.8552 O.3     1  UNL1       -0.3571
      8 C         138.0635  139.4028  162.6163 C.3     1  UNL1        0.1562
      9 N         137.1335  139.6844  160.5069 N.3     1  UNL1       -0.2925
     10 H         136.8734  138.7493  160.1932 H       1  UNL1        0.1236
     11 C         137.9429  140.3013  159.4050 C.3     1  UNL1        0.1161
     12 O         141.7701  135.0102  155.1497 O.2     1  UNL1       -0.2707
     13 C         141.7833  136.1384  156.1382 C.2     1  UNL1        0.2718
     14 C         143.0853  136.6310  156.6966 C.3     1  UNL1        0.2898
     15 O         143.0985  137.7592  157.6851 O.3     1  UNL1       -0.4627
     16 C         141.8096  138.3947  158.1151 C.ar    1  UNL1        0.1716
     17 C         141.8227  139.5229  159.1035 C.ar    1  UNL1        0.0524
     18 C         140.5338  140.1584  159.5335 C.ar    1  UNL1        0.0757
     19 CL        140.5471  141.2866  160.5220 Cl      1  UNL1       -0.0809
     20 C         139.2318  139.6657  158.9750 C.ar    1  UNL1        0.0870
     21 N         139.2186  138.5376  157.9865 N.ar    1  UNL1       -0.2296
     22 C         140.5076  137.9021  157.5566 C.ar    1  UNL1        0.1683
     23 N         140.4943  136.7739  156.5681 N.am    1  UNL1       -0.2639
     24 H         139.6397  136.4506  156.2016 H       1  UNL1        0.1565
     25 C         139.4983  139.0776  165.9878 C.3     1  UNL1        0.0604
     26 C         140.6090  139.9837  166.4299 C.3     1  UNL1        0.1335
     27 O         141.1569  139.7216  165.0583 O.3     1  UNL1       -0.3806
     28 C         141.8342  140.8349  166.5853 C.3     1  UNL1        0.1402
     29 N         141.8114  141.4336  167.9604 N.ar    1  UNL1       -0.2915
     30 C         142.7590  142.3548  168.6699 C.ar    1  UNL1        0.2611
     31 O         143.9984  142.8360  167.9754 O.2     1  UNL1       -0.2670
     32 C         142.4672  142.7948  170.0739 C.ar    1  UNL1        0.0623
     33 C         141.2278  142.3136  170.7684 C.ar    1  UNL1        0.0254
     34 C         140.2802  141.3924  170.0589 C.ar    1  UNL1        0.0972
     35 N         138.9845  140.7621  170.4998 N.ar    1  UNL1       -0.2400
     36 C         138.1345  139.8485  169.6675 C.ar    1  UNL1        0.1282
     37 C         138.5567  139.4956  168.2721 C.ar    1  UNL1        0.1588
     38 F         137.7067  138.5819  167.4398 F       1  UNL1       -0.2027
     39 C         139.8289  140.0563  167.7090 C.ar    1  UNL1        0.0500
     40 C         140.5720  140.9524  168.6549 C.ar    1  UNL1        0.0806
     41 H         141.9911  140.2038  164.9459 H       1  UNL1        0.2108
@<TRIPOS>BOND
     1    12    13    2
     2    13    14    1
     3    14    15    1
     4    15    16    1
     5    16    17   ar
     6    17    18   ar
     7    18    19    1
     8    18    20   ar
     9    20    11    1
    10    11     9    1
    11     9     1    1
    12     1     2    1
    13     2     3    1
    14     3     4    1
    15     4    25    1
    16    25    26    1
    17    26    27    1
    18    26    28    1
    19    28    29    1
    20    29    30   ar
    21    30    31    2
    22    30    32   ar
    23    32    33   ar
    24    33    34   ar
    25    34    35   ar
    26    35    36   ar
    27    36    37   ar
    28    37    38    1
    29    37    39   ar
    30    39    40   ar
    31     4     5    1
    32     5     6    1
    33     4     7    1
    34     7     8    1
    35    20    21   ar
    36    21    22   ar
    37    22    23    1
    38    23    13   am
    39    22    16   ar
    40     6     1    1
    41     8     1    1
    42    39    26    1
    43    40    29   ar
    44    40    34   ar
    45     9    10    1
    46    27    41    1
    47    23    24    1
@<TRIPOS>MOLECULE
*****
 41 47 0 0 0
SMALL
GASTEIGER

@<TRIPOS>ATOM
      1 C         137.7987  139.6567  162.0873 C.3     1  UNL1        0.0700
      2 C         138.4707  138.3666  162.4533 C.3     1  UNL1        0.0193
      3 C         139.0727  138.1949  163.8165 C.3     1  UNL1        0.0287
      4 C         139.0027  139.3133  164.8136 C.3     1  UNL1        0.0955
      5 C         138.3307  140.6035  164.4476 C.3     1  UNL1        0.0287
      6 C         137.7288  140.7751  163.0844 C.3     1  UNL1        0.0193
      7 O         138.6585  139.4542  164.0790 O.3     1  UNL1       -0.3571
      8 C         138.1142  139.6094  162.8465 C.3     1  UNL1        0.1562
      9 N         137.1967  139.8285  160.7242 N.3     1  UNL1       -0.2925
     10 H         136.9128  138.9010  160.4087 H       1  UNL1        0.1236
     11 C         138.0080  140.4330  159.6168 C.3     1  UNL1        0.1161
     12 O         143.9980  144.6564  162.2692 O.2     1  UNL1       -0.2707
     13 C         143.4787  143.4424  161.5573 C.2     1  UNL1        0.2718
     14 C         144.4369  142.4222  161.0179 C.3     1  UNL1        0.2898
     15 O         143.9178  141.2082  160.3061 O.3     1  UNL1       -0.4627
     16 C         142.4403  141.0144  160.1338 C.ar    1  UNL1        0.1716
     17 C         141.9211  139.8004  159.4220 C.ar    1  UNL1        0.0524
     18 C         140.4437  139.6066  159.2497 C.ar    1  UNL1        0.0757
     19 CL        139.9245  138.3926  158.5379 Cl      1  UNL1       -0.0809
     20 C         139.4855  140.6269  159.7892 C.ar    1  UNL1        0.0870
     21 N         140.0047  141.8408  160.5010 N.ar    1  UNL1       -0.2296
     22 C         141.4821  142.0346  160.6733 C.ar    1  UNL1        0.1683
     23 N         142.0013  143.2486  161.3850 N.am    1  UNL1       -0.2639
     24 H         141.3724  143.9182  161.7391 H       1  UNL1        0.1565
     25 C         139.6047  139.1416  166.1768 C.3     1  UNL1        0.0604
     26 C         140.7299  140.0304  166.6171 C.3     1  UNL1        0.1335
     27 O         141.2802  139.7461  165.2510 O.3     1  UNL1       -0.3806
     28 C         141.9701  140.8598  166.7719 C.3     1  UNL1        0.1402
     29 N         141.9512  141.4709  168.1417 N.ar    1  UNL1       -0.2915
     30 C         142.9122  142.3802  168.8484 C.ar    1  UNL1        0.2611
     31 O         144.1641  142.8319  168.1566 O.2     1  UNL1       -0.2670
     32 C         142.6212  142.8379  170.2469 C.ar    1  UNL1        0.0623
     33 C         141.3692  142.3862  170.9387 C.ar    1  UNL1        0.0254
     34 C         140.4082  141.4768  170.2319 C.ar    1  UNL1        0.0972
     35 N         139.0985  140.8750  170.6711 N.ar    1  UNL1       -0.2400
     36 C         138.2359  139.9702  169.8421 C.ar    1  UNL1        0.1282
     37 C         138.6589  139.5972  168.4522 C.ar    1  UNL1        0.1588
     38 F         137.7963  138.6924  167.6231 F       1  UNL1       -0.2027
     39 C         139.9444  140.1289  167.8912 C.ar    1  UNL1        0.0500
     40 C         140.6992  141.0192  168.8335 C.ar    1  UNL1        0.0806
     41 H         142.1238  140.2115  165.1390 H       1  UNL1        0.2108
@<TRIPOS>BOND
     1    12    13    2
     2    13    14    1
     3    14    15    1
     4    15    16    1
     5    16    17   ar
     6    17    18   ar
     7    18    19    1
     8    18    20   ar
     9    20    11    1
    10    11     9    1
    11     9     1    1
    12     1     2    1
    13     2     3    1
    14     3     4    1
    15     4    25    1
    16    25    26    1
    17    26    27    1
    18    26    28    1
    19    28    29    1
    20    29    30   ar
    21    30    31    2
    22    30    32   ar
    23    32    33   ar
    24    33    34   ar
    25    34    35   ar
    26    35    36   ar
    27    36    37   ar
    28    37    38    1
    29    37    39   ar
    30    39    40   ar
    31     4     5    1
    32     5     6    1
    33     4     7    1
    34     7     8    1
    35    20    21   ar
    36    21    22   ar
    37    22    23    1
    38    23    13   am
    39    22    16   ar
    40     6     1    1
    41     8     1    1
    42    39    26    1
    43    40    29   ar
    44    40    34   ar
    45     9    10    1
    46    27    41    1
    47    23    24    1
@<TRIPOS>MOLECULE
*****
 41 47 0 0 0
SMALL
GASTEIGER

@<TRIPOS>ATOM
      1 C         138.0194  139.6490  161.2013 C.3     1  UNL1        0.0700
      2 C         138.4624  138.2627  161.5645 C.3     1  UNL1        0.0193
      3 C         139.2371  138.0296  162.8276 C.3     1  UNL1        0.0287
      4 C         139.5689  139.1829  163.7276 C.3     1  UNL1        0.0955
      5 C         139.1260  140.5692  163.3644 C.3     1  UNL1        0.0287
      6 C         138.3512  140.8022  162.1013 C.3     1  UNL1        0.0193
      7 O         139.1423  139.3599  163.0459 O.3     1  UNL1       -0.3571
      8 C         138.4418  139.5707  161.9039 C.3     1  UNL1        0.1562
      9 N         137.2447  139.8821  159.9382 N.3     1  UNL1       -0.2925
     10 H         136.7821  139.0022  159.7099 H       1  UNL1        0.1236
     11 C         137.9539  140.3336  158.6960 C.3     1  UNL1        0.1161
     12 O         142.0314  134.5941  155.3519 O.2     1  UNL1       -0.2707
     13 C         141.9909  135.8980  156.0924 C.2     1  UNL1        0.2718
     14 C         143.2689  136.5926  156.4585 C.3     1  UNL1        0.2898
     15 O         143.2284  137.8965  157.1990 O.3     1  UNL1       -0.4627
     16 C         141.9098  138.5058  157.5732 C.ar    1  UNL1        0.1716
     17 C         141.8692  139.8096  158.3137 C.ar    1  UNL1        0.0524
     18 C         140.5505  140.4189  158.6879 C.ar    1  UNL1        0.0757
     19 CL        140.5100  141.7228  159.4283 Cl      1  UNL1       -0.0809
     20 C         139.2725  139.7242  158.3217 C.ar    1  UNL1        0.0870
     21 N         139.3131  138.4204  157.5813 N.ar    1  UNL1       -0.2296
     22 C         140.6317  137.8111  157.2070 C.ar    1  UNL1        0.1683
     23 N         140.6722  136.5073  156.4666 N.am    1  UNL1       -0.2639
     24 H         139.8334  136.0514  156.2263 H       1  UNL1        0.1565
     25 C         140.3437  138.9498  164.9907 C.3     1  UNL1        0.0604
     26 C         139.7497  139.3273  166.3153 C.3     1  UNL1        0.1335
     27 O         138.6557  138.3818  165.9167 O.3     1  UNL1       -0.3806
     28 C         138.9271  139.5072  167.5567 C.3     1  UNL1        0.1402
     29 N         139.6369  140.4850  168.4455 N.ar    1  UNL1       -0.2915
     30 C         139.2976  141.0437  169.7956 C.ar    1  UNL1        0.2611
     31 O         138.0363  140.6193  170.4876 O.2     1  UNL1       -0.2670
     32 C         140.2197  142.0269  170.4537 C.ar    1  UNL1        0.0623
     33 C         141.4811  142.4513  169.7617 C.ar    1  UNL1        0.0254
     34 C         141.8203  141.8926  168.4117 C.ar    1  UNL1        0.0972
     35 N         142.9953  142.1333  167.4995 N.ar    1  UNL1       -0.2400
     36 C         143.2009  141.4927  166.1589 C.ar    1  UNL1        0.1282
     37 C         142.1873  140.5231  165.6277 C.ar    1  UNL1        0.1588
     38 F         142.3929  139.8825  164.2870 F       1  UNL1       -0.2027
     39 C         140.9680  140.1940  166.4370 C.ar    1  UNL1        0.0500
     40 C         140.8983  140.9095  167.7536 C.ar    1  UNL1        0.0806
     41 H         137.9856  138.3488  166.6173 H       1  UNL1        0.2108
@<TRIPOS>BOND
     1    12    13    2
     2    13    14    1
     3    14    15    1
     4    15    16    1
     5    16    17   ar
     6    17    18   ar
     7    18    19    1
     8    18    20   ar
     9    20    11    1
    10    11     9    1
    11     9     1    1
    12     1     2    1
    13     2     3    1
    14     3     4    1
    15     4    25    1
    16    25    26    1
    17    26    27    1
    18    26    28    1
    19    28    29    1
    20    29    30   ar
    21    30    31    2
    22    30    32   ar
    23    32    33   ar
    24    33    34   ar
    25    34    35   ar
    26    35    36   ar
    27    36    37   ar
    28    37    38    1
    29    37    39   ar
    30    39    40   ar
    31     4     5    1
    32     5     6    1
    33     4     7    1
    34     7     8    1
    35    20    21   ar
    36    21    22   ar
    37    22    23    1
    38    23    13   am
    39    22    16   ar
    40     6     1    1
    41     8     1    1
    42    39    26    1
    43    40    29   ar
    44    40    34   ar
    45     9    10    1
    46    27    41    1
    47    23    24    1
@<TRIPOS>MOLECULE
*****
 41 47 0 0 0
SMALL
GASTEIGER

@<TRIPOS>ATOM
      1 C         144.2981  140.1968  157.5364 C.3     1  UNL1        0.0700
      2 C         143.4776  139.8322  158.7380 C.3     1  UNL1        0.0193
      3 C         143.3149  140.8133  159.8609 C.3     1  UNL1        0.0287
      4 C         143.9729  142.1591  159.7823 C.3     1  UNL1        0.0955
      5 C         144.7934  142.5237  158.5808 C.3     1  UNL1        0.0287
      6 C         144.9560  141.5425  157.4578 C.3     1  UNL1        0.0193
      7 O         144.0907  141.6547  159.1422 O.3     1  UNL1       -0.3571
      8 C         144.2377  140.7676  158.1269 C.3     1  UNL1        0.1562
      9 N         144.4608  139.2157  156.4135 N.3     1  UNL1       -0.2925
     10 H         145.0497  139.6654  155.7125 H       1  UNL1        0.1236
     11 C         143.2531  138.6930  155.6935 C.3     1  UNL1        0.1161
     12 O         145.0189  131.4392  157.9333 O.2     1  UNL1       -0.2707
     13 C         144.0762  132.4022  157.2742 C.2     1  UNL1        0.2718
     14 C         142.7797  131.9101  156.7027 C.3     1  UNL1        0.2898
     15 O         141.8370  132.8730  156.0437 O.3     1  UNL1       -0.4627
     16 C         142.1910  134.3280  155.9561 C.ar    1  UNL1        0.1716
     17 C         141.2485  135.2909  155.2971 C.ar    1  UNL1        0.0524
     18 C         141.6025  136.7459  155.2096 C.ar    1  UNL1        0.0757
     19 CL        140.6598  137.7088  154.5505 Cl      1  UNL1       -0.0809
     20 C         142.8992  137.2380  155.7811 C.ar    1  UNL1        0.0870
     21 N         143.8417  136.2750  156.4401 N.ar    1  UNL1       -0.2296
     22 C         143.4877  134.8200  156.5276 C.ar    1  UNL1        0.1683
     23 N         144.4303  133.8572  157.1867 N.am    1  UNL1       -0.2639
     24 H         145.2813  134.1802  157.5618 H       1  UNL1        0.1565
     25 C         143.8102  143.1402  160.9053 C.3     1  UNL1        0.0604
     26 C         142.4655  143.7426  161.1860 C.3     1  UNL1        0.1335
     27 O         142.5127  144.1322  159.7383 O.3     1  UNL1       -0.3806
     28 C         141.1307  144.4265  161.1641 C.3     1  UNL1        0.1402
     29 N         140.5396  144.3336  162.5397 N.ar    1  UNL1       -0.2915
     30 C         139.2438  144.8282  163.1108 C.ar    1  UNL1        0.2611
     31 O         138.2743  145.5695  162.2388 O.2     1  UNL1       -0.2670
     32 C         138.9176  144.5816  164.5539 C.ar    1  UNL1        0.0623
     33 C         139.8872  143.8403  165.4259 C.ar    1  UNL1        0.0254
     34 C         141.1830  143.3456  164.8548 C.ar    1  UNL1        0.0972
     35 N         142.3241  142.5873  165.4819 N.ar    1  UNL1       -0.2400
     36 C         143.5739  142.1549  164.7742 C.ar    1  UNL1        0.1282
     37 C         143.7616  142.4748  163.3207 C.ar    1  UNL1        0.1588
     38 F         145.0115  142.0425  162.6130 F       1  UNL1       -0.2027
     39 C         142.6995  143.2270  162.5751 C.ar    1  UNL1        0.0500
     40 C         141.5092  143.5923  163.4117 C.ar    1  UNL1        0.0806
     41 H         141.7015  144.6105  159.5056 H       1  UNL1        0.2108
@<TRIPOS>BOND
     1    12    13    2
     2    13    14    1
     3    14    15    1
     4    15    16    1
     5    16    17   ar
     6    17    18   ar
     7    18    19    1
     8    18    20   ar
     9    20    11    1
    10    11     9    1
    11     9     1    1
    12     1     2    1
    13     2     3    1
    14     3     4    1
    15     4    25    1
    16    25    26    1
    17    26    27    1
    18    26    28    1
    19    28    29    1
    20    29    30   ar
    21    30    31    2
    22    30    32   ar
    23    32    33   ar
    24    33    34   ar
    25    34    35   ar
    26    35    36   ar
    27    36    37   ar
    28    37    38    1
    29    37    39   ar
    30    39    40   ar
    31     4     5    1
    32     5     6    1
    33     4     7    1
    34     7     8    1
    35    20    21   ar
    36    21    22   ar
    37    22    23    1
    38    23    13   am
    39    22    16   ar
    40     6     1    1
    41     8     1    1
    42    39    26    1
    43    40    29   ar
    44    40    34   ar
    45     9    10    1
    46    27    41    1
    47    23    24    1
@<TRIPOS>MOLECULE
*****
 41 47 0 0 0
SMALL
GASTEIGER

@<TRIPOS>ATOM
      1 C         142.3944  138.5022  160.0368 C.3     1  UNL1        0.0700
      2 C         142.4800  137.7758  161.3464 C.3     1  UNL1        0.0193
      3 C         141.7326  138.2915  162.5404 C.3     1  UNL1        0.0287
      4 C         140.8995  139.5336  162.4247 C.3     1  UNL1        0.0955
      5 C         140.8139  140.2599  161.1151 C.3     1  UNL1        0.0287
      6 C         141.5613  139.7442  159.9212 C.3     1  UNL1        0.0193
      7 O         141.2912  139.2893  161.7429 O.3     1  UNL1       -0.3571
      8 C         141.9670  138.8230  160.6633 C.3     1  UNL1        0.1562
      9 N         143.1418  137.9865  158.8429 N.3     1  UNL1       -0.2925
     10 H         143.7457  138.7440  158.5238 H       1  UNL1        0.1236
     11 C         142.3894  137.4971  157.6411 C.3     1  UNL1        0.1161
     12 O         145.0945  130.2122  158.2441 O.2     1  UNL1       -0.2707
     13 C         144.5681  131.3370  157.4028 C.2     1  UNL1        0.2718
     14 C         144.4170  131.1582  155.9212 C.3     1  UNL1        0.2898
     15 O         143.8905  132.2830  155.0798 O.3     1  UNL1       -0.4627
     16 C         143.5152  133.5865  155.7201 C.ar    1  UNL1        0.1716
     17 C         142.9888  134.7113  154.8789 C.ar    1  UNL1        0.0524
     18 C         142.6135  136.0148  155.5192 C.ar    1  UNL1        0.0757
     19 CL        142.0871  137.1395  154.6778 Cl      1  UNL1       -0.0809
     20 C         142.7647  136.1935  157.0008 C.ar    1  UNL1        0.0870
     21 N         143.2911  135.0688  157.8421 N.ar    1  UNL1       -0.2296
     22 C         143.6664  133.7652  157.2018 C.ar    1  UNL1        0.1683
     23 N         144.1928  132.6406  158.0431 N.am    1  UNL1       -0.2639
     24 H         144.2920  132.7579  159.0155 H       1  UNL1        0.1565
     25 C         140.1521  140.0493  163.6186 C.3     1  UNL1        0.0604
     26 C         140.8981  140.6910  164.7507 C.3     1  UNL1        0.1335
     27 O         141.7766  141.2278  163.6598 O.3     1  UNL1       -0.3806
     28 C         141.8277  141.4450  165.6547 C.3     1  UNL1        0.1402
     29 N         141.3678  141.2401  167.0677 N.ar    1  UNL1       -0.2915
     30 C         141.8976  141.7416  168.3784 C.ar    1  UNL1        0.2611
     31 O         143.1115  142.6222  168.4091 O.2     1  UNL1       -0.2670
     32 C         141.2134  141.3625  169.6582 C.ar    1  UNL1        0.0623
     33 C         139.9995  140.4818  169.6275 C.ar    1  UNL1        0.0254
     34 C         139.4698  139.9803  168.3168 C.ar    1  UNL1        0.0972
     35 N         138.2923  139.0992  167.9888 N.ar    1  UNL1       -0.2400
     36 C         137.8800  138.6765  166.6099 C.ar    1  UNL1        0.1282
     37 C         138.6657  139.1370  165.4180 C.ar    1  UNL1        0.1588
     38 F         138.2534  138.7142  164.0391 F       1  UNL1       -0.2027
     39 C         139.8636  140.0202  165.6049 C.ar    1  UNL1        0.0500
     40 C         140.1539  140.3595  167.0369 C.ar    1  UNL1        0.0806
     41 H         142.4796  141.7713  164.0488 H       1  UNL1        0.2108
@<TRIPOS>BOND
     1    12    13    2
     2    13    14    1
     3    14    15    1
     4    15    16    1
     5    16    17   ar
     6    17    18   ar
     7    18    19    1
     8    18    20   ar
     9    20    11    1
    10    11     9    1
    11     9     1    1
    12     1     2    1
    13     2     3    1
    14     3     4    1
    15     4    25    1
    16    25    26    1
    17    26    27    1
    18    26    28    1
    19    28    29    1
    20    29    30   ar
    21    30    31    2
    22    30    32   ar
    23    32    33   ar
    24    33    34   ar
    25    34    35   ar
    26    35    36   ar
    27    36    37   ar
    28    37    38    1
    29    37    39   ar
    30    39    40   ar
    31     4     5    1
    32     5     6    1
    33     4     7    1
    34     7     8    1
    35    20    21   ar
    36    21    22   ar
    37    22    23    1
    38    23    13   am
    39    22    16   ar
    40     6     1    1
    41     8     1    1
    42    39    26    1
    43    40    29   ar
    44    40    34   ar
    45     9    10    1
    46    27    41    1
    47    23    24    1
@<TRIPOS>MOLECULE
*****
 41 47 0 0 0
SMALL
GASTEIGER

@<TRIPOS>ATOM
      1 C         143.1769  144.4429  163.4709 C.3     1  UNL1        0.0700
      2 C         143.5200  143.8120  162.1539 C.3     1  UNL1        0.0193
      3 C         142.6032  143.9828  160.9790 C.3     1  UNL1        0.0287
      4 C         141.3433  144.7846  161.1211 C.3     1  UNL1        0.0955
      5 C         141.0003  145.4155  162.4380 C.3     1  UNL1        0.0287
      6 C         141.9171  145.2446  163.6129 C.3     1  UNL1        0.0193
      7 O         141.8145  144.7188  161.7931 O.3     1  UNL1       -0.3571
      8 C         142.6434  144.5644  162.8554 C.3     1  UNL1        0.1562
      9 N         144.0937  144.2721  164.6458 N.3     1  UNL1       -0.2925
     10 H         145.0464  144.3026  164.2828 H       1  UNL1        0.1236
     11 C         143.9954  143.0440  165.5013 C.3     1  UNL1        0.1161
     12 O         138.6760  137.4947  164.2123 O.2     1  UNL1       -0.2707
     13 C         140.0646  138.0313  164.0276 C.2     1  UNL1        0.2718
     14 C         141.0685  137.2545  163.2284 C.3     1  UNL1        0.2898
     15 O         142.4572  137.7910  163.0436 O.3     1  UNL1       -0.4627
     16 C         142.8417  139.1042  163.6581 C.ar    1  UNL1        0.1716
     17 C         144.2302  139.6407  163.4733 C.ar    1  UNL1        0.0524
     18 C         144.6147  140.9540  164.0878 C.ar    1  UNL1        0.0757
     19 CL        146.0034  141.4904  163.9030 Cl      1  UNL1       -0.0809
     20 C         143.6107  141.7307  164.8869 C.ar    1  UNL1        0.0870
     21 N         142.2222  141.1942  165.0716 N.ar    1  UNL1       -0.2296
     22 C         141.8377  139.8809  164.4572 C.ar    1  UNL1        0.1683
     23 N         140.4492  139.3445  164.6420 N.am    1  UNL1       -0.2639
     24 H         139.7902  139.8543  165.1665 H       1  UNL1        0.1565
     25 C         140.4266  144.9554  159.9462 C.3     1  UNL1        0.0604
     26 C         139.5798  143.8074  159.4825 C.3     1  UNL1        0.1335
     27 O         139.1390  143.7587  160.9154 O.3     1  UNL1       -0.3806
     28 C         138.6408  142.6492  159.3183 C.3     1  UNL1        0.1402
     29 N         138.6783  142.2222  157.8809 N.ar    1  UNL1       -0.2915
     30 C         137.9606  141.1346  157.1379 C.ar    1  UNL1        0.2611
     31 O         136.9985  140.2403  157.8622 O.2     1  UNL1       -0.2670
     32 C         138.2051  140.9412  155.6707 C.ar    1  UNL1        0.0623
     33 C         139.1673  141.8355  154.9465 C.ar    1  UNL1        0.0254
     34 C         139.8850  142.9231  155.6894 C.ar    1  UNL1        0.0972
     35 N         140.8867  143.9508  155.2303 N.ar    1  UNL1       -0.2400
     36 C         141.5276  144.9901  156.1015 C.ar    1  UNL1        0.1282
     37 C         141.1831  145.0628  157.5596 C.ar    1  UNL1        0.1588
     38 F         141.8240  146.1021  158.4307 F       1  UNL1       -0.2027
     39 C         140.1976  144.0961  158.1465 C.ar    1  UNL1        0.0500
     40 C         139.6405  143.1164  157.1566 C.ar    1  UNL1        0.0806
     41 H         138.4966  143.0413  161.0318 H       1  UNL1        0.2108
@<TRIPOS>BOND
     1    12    13    2
     2    13    14    1
     3    14    15    1
     4    15    16    1
     5    16    17   ar
     6    17    18   ar
     7    18    19    1
     8    18    20   ar
     9    20    11    1
    10    11     9    1
    11     9     1    1
    12     1     2    1
    13     2     3    1
    14     3     4    1
    15     4    25    1
    16    25    26    1
    17    26    27    1
    18    26    28    1
    19    28    29    1
    20    29    30   ar
    21    30    31    2
    22    30    32   ar
    23    32    33   ar
    24    33    34   ar
    25    34    35   ar
    26    35    36   ar
    27    36    37   ar
    28    37    38    1
    29    37    39   ar
    30    39    40   ar
    31     4     5    1
    32     5     6    1
    33     4     7    1
    34     7     8    1
    35    20    21   ar
    36    21    22   ar
    37    22    23    1
    38    23    13   am
    39    22    16   ar
    40     6     1    1
    41     8     1    1
    42    39    26    1
    43    40    29   ar
    44    40    34   ar
    45     9    10    1
    46    27    41    1
    47    23    24    1
@<TRIPOS>MOLECULE
*****
 41 47 0 0 0
SMALL
GASTEIGER

@<TRIPOS>ATOM
      1 C         138.7674  141.3207  163.7147 C.3     1  UNL1        0.0700
      2 C         139.0206  141.0481  162.2616 C.3     1  UNL1        0.0193
      3 C         139.9234  141.9517  161.4752 C.3     1  UNL1        0.0287
      4 C         140.5731  143.1279  162.1420 C.3     1  UNL1        0.0955
      5 C         140.3199  143.4006  163.5951 C.3     1  UNL1        0.0287
      6 C         139.4170  142.4969  164.3814 C.3     1  UNL1        0.0193
      7 O         140.0862  142.6610  162.6140 O.3     1  UNL1       -0.3571
      8 C         139.2698  141.8440  163.3250 C.3     1  UNL1        0.1562
      9 N         137.8645  140.4172  164.5011 N.3     1  UNL1       -0.2925
     10 H         137.3451  141.0104  165.1481 H       1  UNL1        0.1236
     11 C         138.4458  139.2972  165.3121 C.3     1  UNL1        0.1161
     12 O         140.6216  142.1425  172.2346 O.2     1  UNL1       -0.2707
     13 C         140.9696  141.4772  170.9360 C.2     1  UNL1        0.2718
     14 C         142.3908  141.0952  170.6464 C.3     1  UNL1        0.2898
     15 O         142.7390  140.4299  169.3478 O.3     1  UNL1       -0.4627
     16 C         141.6657  140.1467  168.3389 C.ar    1  UNL1        0.1716
     17 C         142.0137  139.4815  167.0403 C.ar    1  UNL1        0.0524
     18 C         140.9404  139.1983  166.0314 C.ar    1  UNL1        0.0757
     19 CL        141.2885  138.5330  164.7328 Cl      1  UNL1       -0.0809
     20 C         139.5191  139.5804  166.3211 C.ar    1  UNL1        0.0870
     21 N         139.1711  140.2457  167.6197 N.ar    1  UNL1       -0.2296
     22 C         140.2444  140.5288  168.6286 C.ar    1  UNL1        0.1683
     23 N         139.8963  141.1941  169.9271 N.am    1  UNL1       -0.2639
     24 H         138.9635  141.4449  170.1172 H       1  UNL1        0.1565
     25 C         141.4760  144.0315  161.3556 C.3     1  UNL1        0.0604
     26 C         140.9284  144.8217  160.2042 C.3     1  UNL1        0.1335
     27 O         140.0147  145.4032  161.2420 O.3     1  UNL1       -0.3806
     28 C         140.1898  145.7335  159.2698 C.3     1  UNL1        0.1402
     29 N         140.7614  145.5503  157.8951 N.ar    1  UNL1       -0.2915
     30 C         140.4287  146.1845  156.5771 C.ar    1  UNL1        0.2611
     31 O         139.3368  147.2094  156.4923 O.2     1  UNL1       -0.2670
     32 C         141.1880  145.7936  155.3439 C.ar    1  UNL1        0.0623
     33 C         142.2799  144.7687  155.4288 C.ar    1  UNL1        0.0254
     34 C         142.6126  144.1346  156.7468 C.ar    1  UNL1        0.0972
     35 N         143.6387  143.0975  157.1235 N.ar    1  UNL1       -0.2400
     36 C         143.8578  142.5523  158.5036 C.ar    1  UNL1        0.1282
     37 C         143.0167  143.0411  159.6454 C.ar    1  UNL1        0.1588
     38 F         143.2359  142.4959  161.0255 F       1  UNL1       -0.2027
     39 C         141.9565  144.0751  159.4070 C.ar    1  UNL1        0.0500
     40 C         141.8533  144.5254  157.9799 C.ar    1  UNL1        0.0806
     41 H         139.4235  146.0502  160.8264 H       1  UNL1        0.2108
@<TRIPOS>BOND
     1    12    13    2
     2    13    14    1
     3    14    15    1
     4    15    16    1
     5    16    17   ar
     6    17    18   ar
     7    18    19    1
     8    18    20   ar
     9    20    11    1
    10    11     9    1
    11     9     1    1
    12     1     2    1
    13     2     3    1
    14     3     4    1
    15     4    25    1
    16    25    26    1
    17    26    27    1
    18    26    28    1
    19    28    29    1
    20    29    30   ar
    21    30    31    2
    22    30    32   ar
    23    32    33   ar
    24    33    34   ar
    25    34    35   ar
    26    35    36   ar
    27    36    37   ar
    28    37    38    1
    29    37    39   ar
    30    39    40   ar
    31     4     5    1
    32     5     6    1
    33     4     7    1
    34     7     8    1
    35    20    21   ar
    36    21    22   ar
    37    22    23    1
    38    23    13   am
    39    22    16   ar
    40     6     1    1
    41     8     1    1
    42    39    26    1
    43    40    29   ar
    44    40    34   ar
    45     9    10    1
    46    27    41    1
    47    23    24    1
@<TRIPOS>MOLECULE
*****
 41 47 0 0 0
SMALL
GASTEIGER

@<TRIPOS>ATOM
      1 C         137.7660  139.7109  161.7999 C.3     1  UNL1        0.0700
      2 C         137.7150  140.8558  162.7676 C.3     1  UNL1        0.0193
      3 C         138.2643  140.6913  164.1537 C.3     1  UNL1        0.0287
      4 C         138.8646  139.3818  164.5720 C.3     1  UNL1        0.0955
      5 C         138.9156  138.2369  163.6043 C.3     1  UNL1        0.0287
      6 C         138.3663  138.4015  162.2182 C.3     1  UNL1        0.0193
      7 O         138.5763  139.4243  163.8020 O.3     1  UNL1       -0.3571
      8 C         138.0796  139.5730  162.5487 C.3     1  UNL1        0.1562
      9 N         137.2167  139.8754  160.4138 N.3     1  UNL1       -0.2925
     10 H         136.5530  139.1148  160.2679 H       1  UNL1        0.1236
     11 C         138.1438  139.8733  159.2346 C.3     1  UNL1        0.1161
     12 O         142.5059  146.2319  158.0987 O.2     1  UNL1       -0.2707
     13 C         141.3219  145.3865  157.7333 C.2     1  UNL1        0.2718
     14 C         140.4080  145.8154  156.6240 C.3     1  UNL1        0.2898
     15 O         139.2239  144.9701  156.2585 O.3     1  UNL1       -0.4627
     16 C         138.9539  143.6959  157.0026 C.ar    1  UNL1        0.1716
     17 C         137.7699  142.8505  156.6372 C.ar    1  UNL1        0.0524
     18 C         137.4999  141.5763  157.3812 C.ar    1  UNL1        0.0757
     19 CL        136.3158  140.7310  157.0158 Cl      1  UNL1       -0.0809
     20 C         138.4139  141.1475  158.4906 C.ar    1  UNL1        0.0870
     21 N         139.5978  141.9929  158.8560 N.ar    1  UNL1       -0.2296
     22 C         139.8679  143.2671  158.1119 C.ar    1  UNL1        0.1683
     23 N         141.0519  144.1124  158.4774 N.am    1  UNL1       -0.2639
     24 H         141.6517  143.8309  159.2055 H       1  UNL1        0.1565
     25 C         139.4139  139.2173  165.9581 C.3     1  UNL1        0.0604
     26 C         140.5440  140.0861  166.4250 C.3     1  UNL1        0.1335
     27 O         141.0725  139.8737  165.0374 O.3     1  UNL1       -0.3806
     28 C         141.7846  140.9105  166.6019 C.3     1  UNL1        0.1402
     29 N         141.7866  141.4507  168.0012 N.ar    1  UNL1       -0.2915
     30 C         142.7568  142.3260  168.7378 C.ar    1  UNL1        0.2611
     31 O         143.9962  142.8165  168.0498 O.2     1  UNL1       -0.2670
     32 C         142.4877  142.7107  170.1624 C.ar    1  UNL1        0.0623
     33 C         141.2483  142.2201  170.8504 C.ar    1  UNL1        0.0254
     34 C         140.2781  141.3449  170.1138 C.ar    1  UNL1        0.0972
     35 N         138.9772  140.7171  170.5428 N.ar    1  UNL1       -0.2400
     36 C         138.1033  139.8531  169.6828 C.ar    1  UNL1        0.1282
     37 C         138.5044  139.5529  168.2689 C.ar    1  UNL1        0.1588
     38 F         137.6305  138.6889  167.4088 F       1  UNL1       -0.2027
     39 C         139.7793  140.1168  167.7151 C.ar    1  UNL1        0.0500
     40 C         140.5472  140.9602  168.6892 C.ar    1  UNL1        0.0806
     41 H         141.9131  140.3469  164.9356 H       1  UNL1        0.2108
@<TRIPOS>BOND
     1    12    13    2
     2    13    14    1
     3    14    15    1
     4    15    16    1
     5    16    17   ar
     6    17    18   ar
     7    18    19    1
     8    18    20   ar
     9    20    11    1
    10    11     9    1
    11     9     1    1
    12     1     2    1
    13     2     3    1
    14     3     4    1
    15     4    25    1
    16    25    26    1
    17    26    27    1
    18    26    28    1
    19    28    29    1
    20    29    30   ar
    21    30    31    2
    22    30    32   ar
    23    32    33   ar
    24    33    34   ar
    25    34    35   ar
    26    35    36   ar
    27    36    37   ar
    28    37    38    1
    29    37    39   ar
    30    39    40   ar
    31     4     5    1
    32     5     6    1
    33     4     7    1
    34     7     8    1
    35    20    21   ar
    36    21    22   ar
    37    22    23    1
    38    23    13   am
    39    22    16   ar
    40     6     1    1
    41     8     1    1
    42    39    26    1
    43    40    29   ar
    44    40    34   ar
    45     9    10    1
    46    27    41    1
    47    23    24    1
@<TRIPOS>MOLECULE
*****
 41 47 0 0 0
SMALL
GASTEIGER

@<TRIPOS>ATOM
      1 C         142.1636  137.9096  158.0308 C.3     1  UNL1        0.0700
      2 C         140.7880  137.8965  157.4328 C.3     1  UNL1        0.0193
      3 C         139.6336  138.4775  158.1942 C.3     1  UNL1        0.0287
      4 C         139.8548  139.0716  159.5538 C.3     1  UNL1        0.0955
      5 C         141.2303  139.0848  160.1518 C.3     1  UNL1        0.0287
      6 C         142.3847  138.5038  159.3903 C.3     1  UNL1        0.0193
      7 O         140.5183  138.7651  159.1746 O.3     1  UNL1       -0.3571
      8 C         141.5621  138.2398  158.4861 C.3     1  UNL1        0.1562
      9 N         143.3180  137.3287  157.2694 N.3     1  UNL1       -0.2925
     10 H         143.9326  138.1061  157.0279 H       1  UNL1        0.1236
     11 C         143.0719  136.5619  156.0039 C.3     1  UNL1        0.1161
     12 O         145.1476  129.5676  158.7466 O.2     1  UNL1       -0.2707
     13 C         144.2597  130.4128  157.8819 C.2     1  UNL1        0.2718
     14 C         143.1759  129.7716  157.0670 C.3     1  UNL1        0.2898
     15 O         142.2880  130.6166  156.2024 O.3     1  UNL1       -0.4627
     16 C         142.4840  132.1030  156.1528 C.ar    1  UNL1        0.1716
     17 C         141.5961  132.9481  155.2882 C.ar    1  UNL1        0.0524
     18 C         141.7921  134.4344  155.2386 C.ar    1  UNL1        0.0757
     19 CL        140.9042  135.2795  154.3740 Cl      1  UNL1       -0.0809
     20 C         142.8760  135.0756  156.0536 C.ar    1  UNL1        0.0870
     21 N         143.7638  134.2305  156.9181 N.ar    1  UNL1       -0.2296
     22 C         143.5678  132.7441  156.9677 C.ar    1  UNL1        0.1683
     23 N         144.4557  131.8991  157.8323 N.am    1  UNL1       -0.2639
     24 H         145.1670  132.3200  158.3672 H       1  UNL1        0.1565
     25 C         138.7003  139.6526  160.3152 C.3     1  UNL1        0.0604
     26 C         138.6854  141.1134  160.6554 C.3     1  UNL1        0.1335
     27 O         138.8043  141.2992  159.1717 O.3     1  UNL1       -0.3806
     28 C         138.6953  142.6131  160.6855 C.3     1  UNL1        0.1402
     29 N         138.5856  143.0488  162.1166 N.ar    1  UNL1       -0.2915
     30 C         138.5465  144.4069  162.7522 C.ar    1  UNL1        0.2611
     31 O         138.6242  145.6373  161.8977 O.2     1  UNL1       -0.2670
     32 C         138.4296  144.5346  164.2421 C.ar    1  UNL1        0.0623
     33 C         138.3519  143.3042  165.0965 C.ar    1  UNL1        0.0254
     34 C         138.3911  141.9461  164.4610 C.ar    1  UNL1        0.0972
     35 N         138.3325  140.5638  165.0580 N.ar    1  UNL1       -0.2400
     36 C         138.3832  139.2797  164.2845 C.ar    1  UNL1        0.1282
     37 C         138.5017  139.3089  162.7894 C.ar    1  UNL1        0.1588
     38 F         138.5524  138.0248  162.0159 F       1  UNL1       -0.2027
     39 C         138.5696  140.6223  162.0680 C.ar    1  UNL1        0.0500
     40 C         138.5079  141.8184  162.9711 C.ar    1  UNL1        0.0806
     41 H         138.8284  142.2467  158.9654 H       1  UNL1        0.2108
@<TRIPOS>BOND
     1    12    13    2
     2    13    14    1
     3    14    15    1
     4    15    16    1
     5    16    17   ar
     6    17    18   ar
     7    18    19    1
     8    18    20   ar
     9    20    11    1
    10    11     9    1
    11     9     1    1
    12     1     2    1
    13     2     3    1
    14     3     4    1
    15     4    25    1
    16    25    26    1
    17    26    27    1
    18    26    28    1
    19    28    29    1
    20    29    30   ar
    21    30    31    2
    22    30    32   ar
    23    32    33   ar
    24    33    34   ar
    25    34    35   ar
    26    35    36   ar
    27    36    37   ar
    28    37    38    1
    29    37    39   ar
    30    39    40   ar
    31     4     5    1
    32     5     6    1
    33     4     7    1
    34     7     8    1
    35    20    21   ar
    36    21    22   ar
    37    22    23    1
    38    23    13   am
    39    22    16   ar
    40     6     1    1
    41     8     1    1
    42    39    26    1
    43    40    29   ar
    44    40    34   ar
    45     9    10    1
    46    27    41    1
    47    23    24    1
