@<TRIPOS>MOLECULE
*****
 37 41 0 0 0
SMALL
GASTEIGER

@<TRIPOS>ATOM
      1 C         143.0328  138.7147  156.8617 C.3     1  UNL1        0.0896
      2 N         142.7921  138.8581  158.3353 N.3     1  UNL1       -0.2710
      3 C         142.8545  137.6530  159.2262 C.3     1  UNL1        0.0739
      4 C         142.6138  137.7964  160.6998 C.3     1  UNL1        0.0374
      5 C         142.3109  139.1449  161.2825 C.3     1  UNL1        0.0832
      6 C         142.2485  140.3500  160.3916 C.3     1  UNL1        0.1103
      7 C         142.4892  140.2066  158.9180 C.3     1  UNL1        0.0829
      8 N         142.0702  139.2883  162.7561 N.am    1  UNL1       -0.3006
      9 C         143.2255  139.2493  163.7120 C.2     1  UNL1        0.2669
     10 O         144.6215  139.0668  163.1943 O.2     1  UNL1       -0.2684
     11 H         141.1540  139.4080  163.0959 H       1  UNL1        0.1497
     12 C         142.9849  139.3927  165.1856 C.ar    1  UNL1        0.1761
     13 C         142.0876  140.4021  165.8383 C.ar    1  UNL1        0.0673
     14 C         142.1475  140.1851  167.3214 C.ar    1  UNL1        0.1792
     15 O         143.0817  139.0416  167.5852 O.2     1  UNL1       -0.3532
     16 N         143.5993  138.5519  166.2652 N.ar    1  UNL1       -0.0723
     17 C         141.4036  140.9732  168.3585 C.ar    1  UNL1        0.0648
     18 C         140.1037  140.4586  168.9019 C.ar    1  UNL1        0.0077
     19 C         139.3599  141.2467  169.9390 C.ar    1  UNL1        0.0299
     20 C         139.9159  142.5495  170.4326 C.ar    1  UNL1        0.1424
     21 F         139.1720  143.3375  171.4697 F       1  UNL1       -0.2041
     22 C         141.2158  143.0641  169.8891 C.ar    1  UNL1        0.0593
     23 C         141.9597  142.2760  168.8521 C.ar    1  UNL1        0.1453
     24 F         143.2596  142.7906  168.3086 F       1  UNL1       -0.2040
     25 C         141.9456  141.6987  160.9744 C.2     1  UNL1        0.2252
     26 O         142.7746  142.2302  162.1058 O.2     1  UNL1       -0.2750
     27 N         140.8137  142.5157  160.4256 N.am    1  UNL1       -0.3010
     28 H         140.2696  142.1668  159.6830 H       1  UNL1        0.1497
     29 C         140.5107  143.8643  161.0083 C.3     1  UNL1        0.1089
     30 C         140.5473  145.3488  161.2199 C.3     1  UNL1        0.0274
     31 C         141.3830  144.7241  160.1423 C.3     1  UNL1        0.0274
     32 C         139.5332  143.4728  162.0766 C.ar    1  UNL1        0.1549
     33 N         139.5281  144.1970  163.3902 N.ar    1  UNL1       -0.2276
     34 C         138.5506  143.8055  164.4586 C.ar    1  UNL1        0.1019
     35 C         137.5784  142.6899  164.2133 C.ar    1  UNL1        0.0413
     36 C         137.5836  141.9658  162.8997 C.ar    1  UNL1        0.1019
     37 N         138.5610  142.3572  161.8314 N.ar    1  UNL1       -0.2276
@<TRIPOS>BOND
     1     1     2    1
     2     2     3    1
     3     3     4    1
     4     4     5    1
     5     5     8    1
     6     8     9   am
     7     9    10    2
     8     9    12    1
     9    12    13   ar
    10    13    14   ar
    11    14    17    1
    12    17    18   ar
    13    18    19   ar
    14    19    20   ar
    15    20    21    1
    16    20    22   ar
    17    22    23   ar
    18    23    24    1
    19    14    15   ar
    20    15    16   ar
    21     5     6    1
    22     6    25    1
    23    25    26    2
    24    25    27   am
    25    27    29    1
    26    29    32    1
    27    32    33   ar
    28    33    34   ar
    29    34    35   ar
    30    35    36   ar
    31    36    37   ar
    32    29    30    1
    33    30    31    1
    34     6     7    1
    35     7     2    1
    36    16    12   ar
    37    31    29    1
    38    23    17   ar
    39    37    32   ar
    40     8    11    1
    41    27    28    1
@<TRIPOS>MOLECULE
*****
 37 41 0 0 0
SMALL
GASTEIGER

@<TRIPOS>ATOM
      1 C         141.8531  138.3486  156.0967 C.3     1  UNL1        0.0896
      2 N         141.9686  138.6391  157.5638 N.3     1  UNL1       -0.2710
      3 C         142.5936  137.6302  158.4811 C.3     1  UNL1        0.0739
      4 C         142.7091  137.9206  159.9482 C.3     1  UNL1        0.0374
      5 C         142.1996  139.2199  160.4980 C.3     1  UNL1        0.0832
      6 C         141.5746  140.2287  159.5806 C.3     1  UNL1        0.1103
      7 C         141.4590  139.9383  158.1136 C.3     1  UNL1        0.0829
      8 N         142.3151  139.5103  161.9650 N.am    1  UNL1       -0.3006
      9 C         141.6637  138.5999  162.9634 C.2     1  UNL1        0.2669
     10 O         140.8968  137.3989  162.4947 O.2     1  UNL1       -0.2684
     11 H         142.8184  140.2985  162.2727 H       1  UNL1        0.1497
     12 C         141.7792  138.8903  164.4305 C.ar    1  UNL1        0.1761
     13 C         140.9707  139.8950  165.1967 C.ar    1  UNL1        0.0673
     14 C         141.4154  139.8526  166.6287 C.ar    1  UNL1        0.1792
     15 O         142.4986  138.8218  166.7475 O.2     1  UNL1       -0.3532
     16 N         142.7234  138.2271  165.3889 N.ar    1  UNL1       -0.0723
     17 C         140.8721  140.6935  167.7458 C.ar    1  UNL1        0.0648
     18 C         140.0149  140.0686  168.8063 C.ar    1  UNL1        0.0077
     19 C         139.4716  140.9095  169.9233 C.ar    1  UNL1        0.0299
     20 C         139.7856  142.3752  169.9799 C.ar    1  UNL1        0.1424
     21 F         139.2422  143.2159  171.0970 F       1  UNL1       -0.2041
     22 C         140.6428  143.0000  168.9194 C.ar    1  UNL1        0.0593
     23 C         141.1860  142.1592  167.8023 C.ar    1  UNL1        0.1453
     24 F         142.0432  142.7840  166.7418 F       1  UNL1       -0.2040
     25 C         141.0650  141.5281  160.1304 C.2     1  UNL1        0.2252
     26 O         139.9980  141.5294  161.1846 O.2     1  UNL1       -0.2750
     27 N         141.6225  142.8260  159.6259 N.am    1  UNL1       -0.3010
     28 H         142.3228  142.8251  158.9339 H       1  UNL1        0.1497
     29 C         141.1129  144.1254  160.1756 C.3     1  UNL1        0.1089
     30 C         140.3031  145.3816  160.3017 C.3     1  UNL1        0.0274
     31 C         140.0714  144.4527  159.1470 C.3     1  UNL1        0.0274
     32 C         141.9775  144.2491  161.3950 C.ar    1  UNL1        0.1549
     33 N         141.3888  144.7378  162.6852 N.ar    1  UNL1       -0.2276
     34 C         142.2534  144.8616  163.9048 C.ar    1  UNL1        0.1019
     35 C         143.7065  144.4967  163.8341 C.ar    1  UNL1        0.0413
     36 C         144.2953  144.0081  162.5439 C.ar    1  UNL1        0.1019
     37 N         143.4307  143.8843  161.3244 N.ar    1  UNL1       -0.2276
@<TRIPOS>BOND
     1     1     2    1
     2     2     3    1
     3     3     4    1
     4     4     5    1
     5     5     8    1
     6     8     9   am
     7     9    10    2
     8     9    12    1
     9    12    13   ar
    10    13    14   ar
    11    14    17    1
    12    17    18   ar
    13    18    19   ar
    14    19    20   ar
    15    20    21    1
    16    20    22   ar
    17    22    23   ar
    18    23    24    1
    19    14    15   ar
    20    15    16   ar
    21     5     6    1
    22     6    25    1
    23    25    26    2
    24    25    27   am
    25    27    29    1
    26    29    32    1
    27    32    33   ar
    28    33    34   ar
    29    34    35   ar
    30    35    36   ar
    31    36    37   ar
    32    29    30    1
    33    30    31    1
    34     6     7    1
    35     7     2    1
    36    16    12   ar
    37    31    29    1
    38    23    17   ar
    39    37    32   ar
    40     8    11    1
    41    27    28    1
@<TRIPOS>MOLECULE
*****
 37 41 0 0 0
SMALL
GASTEIGER

@<TRIPOS>ATOM
      1 C         140.2985  144.8459  156.7811 C.3     1  UNL1        0.0896
      2 N         140.5167  144.4616  158.2145 N.3     1  UNL1       -0.2710
      3 C         140.4578  145.5069  159.2886 C.3     1  UNL1        0.0739
      4 C         140.6759  145.1226  160.7220 C.3     1  UNL1        0.0374
      5 C         140.9529  143.6929  161.0814 C.3     1  UNL1        0.0832
      6 C         141.0118  142.6476  160.0073 C.3     1  UNL1        0.1103
      7 C         140.7937  143.0319  158.5739 C.3     1  UNL1        0.0829
      8 N         141.1710  143.3086  162.5148 N.am    1  UNL1       -0.3006
      9 C         142.5235  143.4811  163.1401 C.2     1  UNL1        0.2669
     10 O         143.6580  144.0378  162.3319 O.2     1  UNL1       -0.2684
     11 H         140.4265  142.9432  163.0452 H       1  UNL1        0.1497
     12 C         142.7416  143.0968  164.5735 C.ar    1  UNL1        0.1761
     13 C         141.7580  142.3860  165.4553 C.ar    1  UNL1        0.0673
     14 C         142.3902  142.2057  166.8036 C.ar    1  UNL1        0.1792
     15 O         143.7644  142.8050  166.7551 O.2     1  UNL1       -0.3532
     16 N         143.9816  143.3557  165.3769 N.ar    1  UNL1       -0.0723
     17 C         141.7589  141.5425  167.9917 C.ar    1  UNL1        0.0648
     18 C         142.2493  140.2012  168.4504 C.ar    1  UNL1        0.0077
     19 C         141.6180  139.5381  169.6385 C.ar    1  UNL1        0.0299
     20 C         140.4963  140.2162  170.3679 C.ar    1  UNL1        0.1424
     21 F         139.8650  139.5529  171.5561 F       1  UNL1       -0.2041
     22 C         140.0059  141.5575  169.9092 C.ar    1  UNL1        0.0593
     23 C         140.6372  142.2206  168.7211 C.ar    1  UNL1        0.1453
     24 F         140.1468  143.5619  168.2624 F       1  UNL1       -0.2040
     25 C         141.2888  141.2178  160.3667 C.2     1  UNL1        0.2252
     26 O         140.2626  140.4204  161.1157 O.2     1  UNL1       -0.2750
     27 N         142.5920  140.5855  159.9770 N.am    1  UNL1       -0.3010
     28 H         143.2655  141.1089  159.4854 H       1  UNL1        0.1497
     29 C         142.8691  139.1557  160.3363 C.3     1  UNL1        0.1089
     30 C         142.9772  137.6653  160.2065 C.3     1  UNL1        0.0274
     31 C         142.4792  138.4844  159.0528 C.3     1  UNL1        0.0274
     32 C         143.3551  139.3306  161.7446 C.ar    1  UNL1        0.1549
     33 N         144.4909  140.2662  162.0351 N.ar    1  UNL1       -0.2276
     34 C         144.9770  140.4412  163.4434 C.ar    1  UNL1        0.1019
     35 C         144.3273  139.6805  164.5610 C.ar    1  UNL1        0.0413
     36 C         143.1914  138.7448  164.2705 C.ar    1  UNL1        0.1019
     37 N         142.7053  138.5699  162.8622 N.ar    1  UNL1       -0.2276
@<TRIPOS>BOND
     1     1     2    1
     2     2     3    1
     3     3     4    1
     4     4     5    1
     5     5     8    1
     6     8     9   am
     7     9    10    2
     8     9    12    1
     9    12    13   ar
    10    13    14   ar
    11    14    17    1
    12    17    18   ar
    13    18    19   ar
    14    19    20   ar
    15    20    21    1
    16    20    22   ar
    17    22    23   ar
    18    23    24    1
    19    14    15   ar
    20    15    16   ar
    21     5     6    1
    22     6    25    1
    23    25    26    2
    24    25    27   am
    25    27    29    1
    26    29    32    1
    27    32    33   ar
    28    33    34   ar
    29    34    35   ar
    30    35    36   ar
    31    36    37   ar
    32    29    30    1
    33    30    31    1
    34     6     7    1
    35     7     2    1
    36    16    12   ar
    37    31    29    1
    38    23    17   ar
    39    37    32   ar
    40     8    11    1
    41    27    28    1
@<TRIPOS>MOLECULE
*****
 37 41 0 0 0
SMALL
GASTEIGER

@<TRIPOS>ATOM
      1 C         139.9572  140.0917  171.1583 C.3     1  UNL1        0.0896
      2 N         140.2164  140.7648  169.8432 N.3     1  UNL1       -0.2710
      3 C         140.5665  142.2227  169.8030 C.3     1  UNL1        0.0739
      4 C         140.8258  142.8959  168.4878 C.3     1  UNL1        0.0374
      5 C         140.7349  142.1110  167.2128 C.3     1  UNL1        0.0832
      6 C         140.3848  140.6530  167.2530 C.3     1  UNL1        0.1103
      7 C         140.1256  139.9799  168.5682 C.3     1  UNL1        0.0829
      8 N         140.9942  142.7841  165.8976 N.am    1  UNL1       -0.3006
      9 C         142.3861  142.8313  165.3408 C.2     1  UNL1        0.2669
     10 O         143.5190  142.2054  166.0991 O.2     1  UNL1       -0.2684
     11 H         140.2507  143.1949  165.3999 H       1  UNL1        0.1497
     12 C         142.6454  143.5045  164.0256 C.ar    1  UNL1        0.1761
     13 C         141.7924  143.3961  162.7964 C.ar    1  UNL1        0.0673
     14 C         142.4230  144.2288  161.7198 C.ar    1  UNL1        0.1792
     15 O         143.6656  144.8518  162.2836 O.2     1  UNL1       -0.3532
     16 N         143.8030  144.4041  163.7086 N.ar    1  UNL1       -0.0723
     17 C         141.9024  144.4072  160.3244 C.ar    1  UNL1        0.0648
     18 C         142.5180  143.6419  159.1907 C.ar    1  UNL1        0.0077
     19 C         141.9974  143.8203  157.7953 C.ar    1  UNL1        0.0299
     20 C         140.8610  144.7639  157.5337 C.ar    1  UNL1        0.1424
     21 F         140.3405  144.9422  156.1382 F       1  UNL1       -0.2041
     22 C         140.2454  145.5291  158.6674 C.ar    1  UNL1        0.0593
     23 C         140.7660  145.3507  160.0628 C.ar    1  UNL1        0.1453
     24 F         140.1504  146.1160  161.1965 F       1  UNL1       -0.2040
     25 C         140.2939  139.8681  165.9779 C.2     1  UNL1        0.2252
     26 O         141.5436  139.3800  165.3070 O.2     1  UNL1       -0.2750
     27 N         138.9534  139.5712  165.3739 N.am    1  UNL1       -0.3010
     28 H         138.1333  139.8915  165.8143 H       1  UNL1        0.1497
     29 C         138.8626  138.7862  164.0988 C.3     1  UNL1        0.1089
     30 C         138.7861  137.6115  163.1693 C.3     1  UNL1        0.0274
     31 C         138.8723  137.3914  164.6505 C.3     1  UNL1        0.0274
     32 C         138.8212  139.9085  163.1045 C.ar    1  UNL1        0.1549
     33 N         137.8179  141.0125  163.2610 N.ar    1  UNL1       -0.2276
     34 C         137.7765  142.1349  162.2667 C.ar    1  UNL1        0.1019
     35 C         138.7384  142.1532  161.1159 C.ar    1  UNL1        0.0413
     36 C         139.7418  141.0492  160.9594 C.ar    1  UNL1        0.1019
     37 N         139.7831  139.9269  161.9537 N.ar    1  UNL1       -0.2276
@<TRIPOS>BOND
     1     1     2    1
     2     2     3    1
     3     3     4    1
     4     4     5    1
     5     5     8    1
     6     8     9   am
     7     9    10    2
     8     9    12    1
     9    12    13   ar
    10    13    14   ar
    11    14    17    1
    12    17    18   ar
    13    18    19   ar
    14    19    20   ar
    15    20    21    1
    16    20    22   ar
    17    22    23   ar
    18    23    24    1
    19    14    15   ar
    20    15    16   ar
    21     5     6    1
    22     6    25    1
    23    25    26    2
    24    25    27   am
    25    27    29    1
    26    29    32    1
    27    32    33   ar
    28    33    34   ar
    29    34    35   ar
    30    35    36   ar
    31    36    37   ar
    32    29    30    1
    33    30    31    1
    34     6     7    1
    35     7     2    1
    36    16    12   ar
    37    31    29    1
    38    23    17   ar
    39    37    32   ar
    40     8    11    1
    41    27    28    1
@<TRIPOS>MOLECULE
*****
 37 41 0 0 0
SMALL
GASTEIGER

@<TRIPOS>ATOM
      1 C         143.4170  142.4811  156.0156 C.3     1  UNL1        0.0896
      2 N         143.4147  142.3180  157.5067 N.3     1  UNL1       -0.2710
      3 C         144.6672  142.5746  158.2912 C.3     1  UNL1        0.0739
      4 C         144.6649  142.4116  159.7823 C.3     1  UNL1        0.0374
      5 C         143.4101  141.9919  160.4889 C.3     1  UNL1        0.0832
      6 C         142.1576  141.7353  159.7044 C.3     1  UNL1        0.1103
      7 C         142.1599  141.8983  158.2133 C.3     1  UNL1        0.0829
      8 N         143.4078  141.8288  161.9800 N.am    1  UNL1       -0.3006
      9 C         143.3727  143.0381  162.8667 C.2     1  UNL1        0.2669
     10 O         143.3399  144.4106  162.2623 O.2     1  UNL1       -0.2684
     11 H         143.4293  140.9280  162.3767 H       1  UNL1        0.1497
     12 C         143.3704  142.8751  164.3578 C.ar    1  UNL1        0.1761
     13 C         142.3959  142.0586  165.1540 C.ar    1  UNL1        0.0673
     14 C         142.7655  142.1788  166.6028 C.ar    1  UNL1        0.1792
     15 O         143.9683  143.0695  166.7021 O.2     1  UNL1       -0.3532
     16 N         144.3421  143.4998  165.3146 N.ar    1  UNL1       -0.0723
     17 C         142.0566  141.5233  167.7507 C.ar    1  UNL1        0.0648
     18 C         142.6184  140.2755  168.3651 C.ar    1  UNL1        0.0077
     19 C         141.9095  139.6200  169.5130 C.ar    1  UNL1        0.0299
     20 C         140.6389  140.2123  170.0467 C.ar    1  UNL1        0.1424
     21 F         139.9301  139.5567  171.1946 F       1  UNL1       -0.2041
     22 C         140.0771  141.4600  169.4323 C.ar    1  UNL1        0.0593
     23 C         140.7860  142.1155  168.2844 C.ar    1  UNL1        0.1453
     24 F         140.2242  143.3633  167.6700 F       1  UNL1       -0.2040
     25 C         140.9028  141.3156  160.4111 C.2     1  UNL1        0.2252
     26 O         140.2364  142.2514  161.3755 O.2     1  UNL1       -0.2750
     27 N         140.3144  139.9601  160.1533 N.am    1  UNL1       -0.3010
     28 H         140.7518  139.3459  159.5203 H       1  UNL1        0.1497
     29 C         139.0596  139.5404  160.8599 C.3     1  UNL1        0.1089
     30 C         137.6009  139.3180  161.1295 C.3     1  UNL1        0.0274
     31 C         138.0368  139.9626  159.8472 C.3     1  UNL1        0.0274
     32 C         139.6467  138.9725  162.1180 C.ar    1  UNL1        0.1549
     33 N         140.4342  137.6968  162.0687 N.ar    1  UNL1       -0.2276
     34 C         141.0213  137.1288  163.3268 C.ar    1  UNL1        0.1019
     35 C         140.8210  137.8365  164.6340 C.ar    1  UNL1        0.0413
     36 C         140.0334  139.1121  164.6833 C.ar    1  UNL1        0.1019
     37 N         139.4463  139.6801  163.4252 N.ar    1  UNL1       -0.2276
@<TRIPOS>BOND
     1     1     2    1
     2     2     3    1
     3     3     4    1
     4     4     5    1
     5     5     8    1
     6     8     9   am
     7     9    10    2
     8     9    12    1
     9    12    13   ar
    10    13    14   ar
    11    14    17    1
    12    17    18   ar
    13    18    19   ar
    14    19    20   ar
    15    20    21    1
    16    20    22   ar
    17    22    23   ar
    18    23    24    1
    19    14    15   ar
    20    15    16   ar
    21     5     6    1
    22     6    25    1
    23    25    26    2
    24    25    27   am
    25    27    29    1
    26    29    32    1
    27    32    33   ar
    28    33    34   ar
    29    34    35   ar
    30    35    36   ar
    31    36    37   ar
    32    29    30    1
    33    30    31    1
    34     6     7    1
    35     7     2    1
    36    16    12   ar
    37    31    29    1
    38    23    17   ar
    39    37    32   ar
    40     8    11    1
    41    27    28    1
@<TRIPOS>MOLECULE
*****
 37 41 0 0 0
SMALL
GASTEIGER

@<TRIPOS>ATOM
      1 C         139.6682  140.2599  168.9146 C.3     1  UNL1        0.0896
      2 N         139.5800  140.2573  167.4172 N.3     1  UNL1       -0.2710
      3 C         138.5246  139.4429  166.7295 C.3     1  UNL1        0.0739
      4 C         138.4364  139.4404  165.2321 C.3     1  UNL1        0.0374
      5 C         139.4035  140.2521  164.4224 C.3     1  UNL1        0.0832
      6 C         140.4589  141.0665  165.1101 C.3     1  UNL1        0.1103
      7 C         140.5471  141.0691  166.6075 C.3     1  UNL1        0.0829
      8 N         139.3153  140.2496  162.9250 N.am    1  UNL1       -0.3006
      9 C         138.1683  140.9317  162.2401 C.2     1  UNL1        0.2669
     10 O         137.1095  141.6164  163.0526 O.2     1  UNL1       -0.2684
     11 H         140.0102  139.8002  162.3917 H       1  UNL1        0.1497
     12 C         138.0801  140.9291  160.7427 C.ar    1  UNL1        0.1761
     13 C         138.5630  142.0165  159.8292 C.ar    1  UNL1        0.0673
     14 C         138.2748  141.5981  158.4178 C.ar    1  UNL1        0.1792
     15 O         137.6138  140.2522  158.4591 O.2     1  UNL1       -0.3532
     16 N         137.4935  139.8388  159.8959 N.ar    1  UNL1       -0.0723
     17 C         138.5919  142.3871  157.1821 C.ar    1  UNL1        0.0648
     18 C         139.9424  143.0201  157.0226 C.ar    1  UNL1        0.0077
     19 C         140.2595  143.8091  155.7869 C.ar    1  UNL1        0.0299
     20 C         139.2262  143.9651  154.7108 C.ar    1  UNL1        0.1424
     21 F         139.5434  144.7542  153.4752 F       1  UNL1       -0.2041
     22 C         137.8757  143.3321  154.8704 C.ar    1  UNL1        0.0593
     23 C         137.5586  142.5431  156.1061 C.ar    1  UNL1        0.1453
     24 F         136.2081  141.9101  156.2656 F       1  UNL1       -0.2040
     25 C         141.4261  141.8783  164.3004 C.2     1  UNL1        0.2252
     26 O         142.1013  141.2697  163.1073 O.2     1  UNL1       -0.2750
     27 N         141.7180  143.2988  164.6839 N.am    1  UNL1       -0.3010
     28 H         141.2749  143.6982  165.4670 H       1  UNL1        0.1497
     29 C         142.6852  144.1106  163.8742 C.3     1  UNL1        0.1089
     30 C         143.9683  144.7583  163.4450 C.3     1  UNL1        0.0274
     31 C         143.9306  143.9201  164.6884 C.3     1  UNL1        0.0274
     32 C         141.7757  144.5830  162.7790 C.ar    1  UNL1        0.1549
     33 N         142.2101  144.4803  161.3469 N.ar    1  UNL1       -0.2276
     34 C         141.3006  144.9527  160.2516 C.ar    1  UNL1        0.1019
     35 C         139.9568  145.5278  160.5883 C.ar    1  UNL1        0.0413
     36 C         139.5224  145.6305  162.0204 C.ar    1  UNL1        0.1019
     37 N         140.4319  145.1581  163.1157 N.ar    1  UNL1       -0.2276
@<TRIPOS>BOND
     1     1     2    1
     2     2     3    1
     3     3     4    1
     4     4     5    1
     5     5     8    1
     6     8     9   am
     7     9    10    2
     8     9    12    1
     9    12    13   ar
    10    13    14   ar
    11    14    17    1
    12    17    18   ar
    13    18    19   ar
    14    19    20   ar
    15    20    21    1
    16    20    22   ar
    17    22    23   ar
    18    23    24    1
    19    14    15   ar
    20    15    16   ar
    21     5     6    1
    22     6    25    1
    23    25    26    2
    24    25    27   am
    25    27    29    1
    26    29    32    1
    27    32    33   ar
    28    33    34   ar
    29    34    35   ar
    30    35    36   ar
    31    36    37   ar
    32    29    30    1
    33    30    31    1
    34     6     7    1
    35     7     2    1
    36    16    12   ar
    37    31    29    1
    38    23    17   ar
    39    37    32   ar
    40     8    11    1
    41    27    28    1
@<TRIPOS>MOLECULE
*****
 37 41 0 0 0
SMALL
GASTEIGER

@<TRIPOS>ATOM
      1 C         142.7221  140.5161  155.7920 C.3     1  UNL1        0.0896
      2 N         142.4598  140.2890  157.2513 N.3     1  UNL1       -0.2710
      3 C         142.5251  138.9017  157.8181 C.3     1  UNL1        0.0739
      4 C         142.2627  138.6746  159.2774 C.3     1  UNL1        0.0374
      5 C         141.9351  139.8348  160.1699 C.3     1  UNL1        0.0832
      6 C         141.8698  141.2220  159.6032 C.3     1  UNL1        0.1103
      7 C         142.1321  141.4491  158.1438 C.3     1  UNL1        0.0829
      8 N         141.6727  139.6077  161.6292 N.am    1  UNL1       -0.3006
      9 C         140.2669  139.4243  162.1189 C.2     1  UNL1        0.2669
     10 O         139.1232  139.4680  161.1492 O.2     1  UNL1       -0.2684
     11 H         142.4233  139.5790  162.2657 H       1  UNL1        0.1497
     12 C         140.0045  139.1972  163.5782 C.ar    1  UNL1        0.1761
     13 C         140.6915  139.8924  164.7162 C.ar    1  UNL1        0.0673
     14 C         140.1207  139.3598  165.9970 C.ar    1  UNL1        0.1792
     15 O         139.0810  138.3356  165.6507 O.2     1  UNL1       -0.3532
     16 N         139.0092  138.2351  164.1558 N.ar    1  UNL1       -0.0723
     17 C         140.5196  139.7782  167.3812 C.ar    1  UNL1        0.0648
     18 C         139.4758  140.2357  168.3564 C.ar    1  UNL1        0.0077
     19 C         139.8747  140.6541  169.7406 C.ar    1  UNL1        0.0299
     20 C         141.3174  140.6148  170.1495 C.ar    1  UNL1        0.1424
     21 F         141.7162  141.0332  171.5337 F       1  UNL1       -0.2041
     22 C         142.3612  140.1573  169.1742 C.ar    1  UNL1        0.0593
     23 C         141.9623  139.7389  167.7901 C.ar    1  UNL1        0.1453
     24 F         143.0060  139.2814  166.8148 F       1  UNL1       -0.2040
     25 C         141.5421  142.3822  160.4957 C.2     1  UNL1        0.2252
     26 O         142.4292  142.7057  161.6613 O.2     1  UNL1       -0.2750
     27 N         140.3275  143.2189  160.2227 N.am    1  UNL1       -0.3010
     28 H         139.7453  143.0066  159.4577 H       1  UNL1        0.1497
     29 C         139.9998  144.3791  161.1153 C.3     1  UNL1        0.1089
     30 C         139.9185  145.7885  161.6222 C.3     1  UNL1        0.0274
     31 C         140.5952  145.4995  160.3151 C.3     1  UNL1        0.0274
     32 C         139.2907  143.6616  162.2253 C.ar    1  UNL1        0.1549
     33 N         138.1828  142.7009  161.9099 N.ar    1  UNL1       -0.2276
     34 C         137.4736  141.9833  163.0200 C.ar    1  UNL1        0.1019
     35 C         137.8724  142.2264  164.4454 C.ar    1  UNL1        0.0413
     36 C         138.9803  143.1871  164.7608 C.ar    1  UNL1        0.1019
     37 N         139.6895  143.9047  163.6507 N.ar    1  UNL1       -0.2276
@<TRIPOS>BOND
     1     1     2    1
     2     2     3    1
     3     3     4    1
     4     4     5    1
     5     5     8    1
     6     8     9   am
     7     9    10    2
     8     9    12    1
     9    12    13   ar
    10    13    14   ar
    11    14    17    1
    12    17    18   ar
    13    18    19   ar
    14    19    20   ar
    15    20    21    1
    16    20    22   ar
    17    22    23   ar
    18    23    24    1
    19    14    15   ar
    20    15    16   ar
    21     5     6    1
    22     6    25    1
    23    25    26    2
    24    25    27   am
    25    27    29    1
    26    29    32    1
    27    32    33   ar
    28    33    34   ar
    29    34    35   ar
    30    35    36   ar
    31    36    37   ar
    32    29    30    1
    33    30    31    1
    34     6     7    1
    35     7     2    1
    36    16    12   ar
    37    31    29    1
    38    23    17   ar
    39    37    32   ar
    40     8    11    1
    41    27    28    1
@<TRIPOS>MOLECULE
*****
 37 41 0 0 0
SMALL
GASTEIGER

@<TRIPOS>ATOM
      1 C         142.6041  140.1871  168.7426 C.3     1  UNL1        0.0896
      2 N         142.4512  139.9374  167.2714 N.3     1  UNL1       -0.2710
      3 C         143.1026  138.7419  166.6419 C.3     1  UNL1        0.0739
      4 C         142.9497  138.4923  165.1707 C.3     1  UNL1        0.0374
      5 C         142.1455  139.4382  164.3291 C.3     1  UNL1        0.0832
      6 C         141.4941  140.6337  164.9586 C.3     1  UNL1        0.1103
      7 C         141.6469  140.8833  166.4298 C.3     1  UNL1        0.0829
      8 N         141.9926  139.1886  162.8579 N.am    1  UNL1       -0.3006
      9 C         143.1381  139.4596  161.9282 C.2     1  UNL1        0.2669
     10 O         144.4365  139.9803  162.4696 O.2     1  UNL1       -0.2684
     11 H         141.1404  138.8469  162.5025 H       1  UNL1        0.1497
     12 C         142.9852  139.2100  160.4570 C.ar    1  UNL1        0.1761
     13 C         141.7254  138.7880  159.7606 C.ar    1  UNL1        0.0673
     14 C         142.0270  138.6558  158.2971 C.ar    1  UNL1        0.1792
     15 O         143.4730  138.9960  158.0891 O.2     1  UNL1       -0.3532
     16 N         144.0652  139.3385  159.4240 N.ar    1  UNL1       -0.0723
     17 C         141.0533  138.2539  157.2292 C.ar    1  UNL1        0.0648
     18 C         139.9605  139.1954  156.8178 C.ar    1  UNL1        0.0077
     19 C         138.9868  138.7934  155.7499 C.ar    1  UNL1        0.0299
     20 C         139.1061  137.4500  155.0933 C.ar    1  UNL1        0.1424
     21 F         138.1323  137.0482  154.0254 F       1  UNL1       -0.2041
     22 C         140.1989  136.5085  155.5047 C.ar    1  UNL1        0.0593
     23 C         141.1725  136.9105  156.5726 C.ar    1  UNL1        0.1453
     24 F         142.2654  135.9690  156.9839 F       1  UNL1       -0.2040
     25 C         140.6898  141.5797  164.1170 C.2     1  UNL1        0.2252
     26 O         141.3643  142.4001  163.0577 O.2     1  UNL1       -0.2750
     27 N         139.2110  141.7053  164.3346 N.am    1  UNL1       -0.3010
     28 H         138.7683  141.1669  165.0298 H       1  UNL1        0.1497
     29 C         138.4067  142.6513  163.4930 C.3     1  UNL1        0.1089
     30 C         137.6571  143.8841  163.0829 C.3     1  UNL1        0.0274
     31 C         138.2849  143.8057  164.4429 C.3     1  UNL1        0.0274
     32 C         138.2493  141.8253  162.2508 C.ar    1  UNL1        0.1549
     33 N         137.7549  140.4124  162.3475 N.ar    1  UNL1       -0.2276
     34 C         137.5975  139.5863  161.1054 C.ar    1  UNL1        0.1019
     35 C         137.9343  140.1731  159.7667 C.ar    1  UNL1        0.0413
     36 C         138.4287  141.5860  159.6700 C.ar    1  UNL1        0.1019
     37 N         138.5862  142.4121  160.9122 N.ar    1  UNL1       -0.2276
@<TRIPOS>BOND
     1     1     2    1
     2     2     3    1
     3     3     4    1
     4     4     5    1
     5     5     8    1
     6     8     9   am
     7     9    10    2
     8     9    12    1
     9    12    13   ar
    10    13    14   ar
    11    14    17    1
    12    17    18   ar
    13    18    19   ar
    14    19    20   ar
    15    20    21    1
    16    20    22   ar
    17    22    23   ar
    18    23    24    1
    19    14    15   ar
    20    15    16   ar
    21     5     6    1
    22     6    25    1
    23    25    26    2
    24    25    27   am
    25    27    29    1
    26    29    32    1
    27    32    33   ar
    28    33    34   ar
    29    34    35   ar
    30    35    36   ar
    31    36    37   ar
    32    29    30    1
    33    30    31    1
    34     6     7    1
    35     7     2    1
    36    16    12   ar
    37    31    29    1
    38    23    17   ar
    39    37    32   ar
    40     8    11    1
    41    27    28    1
@<TRIPOS>MOLECULE
*****
 37 41 0 0 0
SMALL
GASTEIGER

@<TRIPOS>ATOM
      1 C         139.7910  140.0409  171.0880 C.3     1  UNL1        0.0896
      2 N         140.0924  140.7628  169.8081 N.3     1  UNL1       -0.2710
      3 C         140.7296  142.1202  169.8449 C.3     1  UNL1        0.0739
      4 C         141.0309  142.8422  168.5650 C.3     1  UNL1        0.0374
      5 C         140.6951  142.2068  167.2485 C.3     1  UNL1        0.0832
      6 C         140.0579  140.8494  167.2117 C.3     1  UNL1        0.1103
      7 C         139.7565  140.1274  168.4916 C.3     1  UNL1        0.0829
      8 N         140.9964  142.9287  165.9687 N.am    1  UNL1       -0.3006
      9 C         142.2522  142.6174  165.2097 C.2     1  UNL1        0.2669
     10 O         143.2067  141.5841  165.7305 O.2     1  UNL1       -0.2684
     11 H         140.3700  143.6069  165.6268 H       1  UNL1        0.1497
     12 C         142.5535  143.3394  163.9299 C.ar    1  UNL1        0.1761
     13 C         141.7508  143.2638  162.6649 C.ar    1  UNL1        0.0673
     14 C         142.4117  144.1415  161.6435 C.ar    1  UNL1        0.1792
     15 O         143.6228  144.7593  162.2772 O.2     1  UNL1       -0.3532
     16 N         143.7104  144.2636  163.6902 N.ar    1  UNL1       -0.0723
     17 C         141.9436  144.3623  160.2357 C.ar    1  UNL1        0.0648
     18 C         142.5970  143.6261  159.1039 C.ar    1  UNL1        0.0077
     19 C         142.1290  143.8470  157.6960 C.ar    1  UNL1        0.0299
     20 C         141.0075  144.8041  157.4199 C.ar    1  UNL1        0.1424
     21 F         140.5395  145.0249  156.0120 F       1  UNL1       -0.2041
     22 C         140.3540  145.5403  158.5517 C.ar    1  UNL1        0.0593
     23 C         140.8221  145.3195  159.9596 C.ar    1  UNL1        0.1453
     24 F         140.1687  146.0557  161.0914 F       1  UNL1       -0.2040
     25 C         139.7220  140.2138  165.8951 C.2     1  UNL1        0.2252
     26 O         138.7006  140.8455  164.9964 O.2     1  UNL1       -0.2750
     27 N         140.4075  138.9468  165.4773 N.am    1  UNL1       -0.3010
     28 H         141.0779  138.5323  166.0672 H       1  UNL1        0.1497
     29 C         140.0716  138.3113  164.1607 C.3     1  UNL1        0.1089
     30 C         139.3516  137.4827  163.1385 C.3     1  UNL1        0.0274
     31 C         138.8491  137.5346  164.5509 C.3     1  UNL1        0.0274
     32 C         141.1775  138.8674  163.3135 C.ar    1  UNL1        0.1549
     33 N         140.8645  139.4858  161.9833 N.ar    1  UNL1       -0.2276
     34 C         141.9704  140.0419  161.1360 C.ar    1  UNL1        0.1019
     35 C         143.3891  139.9796  161.6189 C.ar    1  UNL1        0.0413
     36 C         143.7021  139.3611  162.9491 C.ar    1  UNL1        0.1019
     37 N         142.5962  138.8050  163.7964 N.ar    1  UNL1       -0.2276
@<TRIPOS>BOND
     1     1     2    1
     2     2     3    1
     3     3     4    1
     4     4     5    1
     5     5     8    1
     6     8     9   am
     7     9    10    2
     8     9    12    1
     9    12    13   ar
    10    13    14   ar
    11    14    17    1
    12    17    18   ar
    13    18    19   ar
    14    19    20   ar
    15    20    21    1
    16    20    22   ar
    17    22    23   ar
    18    23    24    1
    19    14    15   ar
    20    15    16   ar
    21     5     6    1
    22     6    25    1
    23    25    26    2
    24    25    27   am
    25    27    29    1
    26    29    32    1
    27    32    33   ar
    28    33    34   ar
    29    34    35   ar
    30    35    36   ar
    31    36    37   ar
    32    29    30    1
    33    30    31    1
    34     6     7    1
    35     7     2    1
    36    16    12   ar
    37    31    29    1
    38    23    17   ar
    39    37    32   ar
    40     8    11    1
    41    27    28    1
