@<TRIPOS>MOLECULE
*****
 31 35 0 0 0
SMALL
GASTEIGER

@<TRIPOS>ATOM
      1 N         139.0925  139.2191  163.9588 N.3     1  UNL1       -0.2703
      2 C         140.3004  140.0872  164.1520 C.3     1  UNL1        0.0727
      3 C         140.6856  140.5407  165.5289 C.3     1  UNL1        0.0260
      4 C         139.8630  140.1260  166.7126 C.3     1  UNL1        0.0737
      5 C         138.6551  139.2579  166.5195 C.3     1  UNL1        0.0260
      6 C         138.2698  138.8045  165.1426 C.3     1  UNL1        0.0727
      7 C         139.1410  139.7934  167.9847 C.3     1  UNL1        0.0306
      8 C         139.8697  140.4536  169.1176 C.3     1  UNL1        0.0992
      9 N         141.0421  141.1942  168.5456 N.am    1  UNL1       -0.2523
     10 C         141.0379  140.9918  167.0593 C.2     1  UNL1        0.2289
     11 O         142.0338  141.5560  166.0899 O.2     1  UNL1       -0.2745
     12 C         142.0428  141.9964  169.3233 C.ar    1  UNL1        0.1035
     13 C         143.5230  141.7573  169.3657 C.ar    1  UNL1        0.0444
     14 C         144.1341  142.7916  170.2638 C.ar    1  UNL1        0.1092
     15 N         143.0316  143.6701  170.7766 N.ar    1  UNL1       -0.2064
     16 S         141.7391  143.1785  170.1952 S.2     1  UNL1        0.0283
     17 C         138.7072  138.7656  162.5818 C.3     1  UNL1        0.1063
     18 C         138.0757  139.7314  161.6234 C.3     1  UNL1        0.1483
     19 O         136.7537  139.4067  160.9935 O.3     1  UNL1       -0.3786
     20 H         136.4895  140.1309  160.4048 H       1  UNL1        0.2108
     21 C         137.4353  142.2143  163.1807 C.3     1  UNL1        0.0306
     22 C         138.4461  142.2632  162.0735 C.ar    1  UNL1       -0.0238
     23 C         138.7663  141.0218  161.2949 C.ar    1  UNL1        0.0015
     24 C         139.7771  141.0708  160.1877 C.ar    1  UNL1       -0.0020
     25 C         140.4677  142.3611  159.8591 C.ar    1  UNL1        0.0060
     26 C         140.1475  143.6026  160.6378 C.ar    1  UNL1        0.0748
     27 C         139.1367  143.5536  161.7449 C.ar    1  UNL1        0.0233
     28 C         139.0277  144.9287  162.3342 C.3     1  UNL1        0.2352
     29 O         139.9711  145.8275  161.5912 O.3     1  UNL1       -0.4404
     30 C         140.6632  145.0079  160.5428 C.2     1  UNL1        0.3413
     31 O         141.6906  145.5062  159.5700 O.2     1  UNL1       -0.2449
@<TRIPOS>BOND
     1    21    22    1
     2    22    23   ar
     3    23    18    1
     4    18    19    1
     5    18    17    1
     6    17     1    1
     7     1     2    1
     8     2     3    1
     9     3     4    1
    10     4     5    1
    11     5     6    1
    12     4     7    1
    13     7     8    1
    14     8     9    1
    15     9    12    1
    16    12    13   ar
    17    13    14   ar
    18    14    15   ar
    19    15    16   ar
    20     9    10   am
    21    10    11    2
    22    23    24   ar
    23    24    25   ar
    24    25    26   ar
    25    26    27   ar
    26    27    28    1
    27    28    29    1
    28    29    30    1
    29    30    31    2
    30    27    22   ar
    31     6     1    1
    32    16    12   ar
    33    30    26    1
    34    10     4    1
    35    19    20    1
@<TRIPOS>MOLECULE
*****
 31 35 0 0 0
SMALL
GASTEIGER

@<TRIPOS>ATOM
      1 N         139.8898  137.8220  164.1082 N.3     1  UNL1       -0.2703
      2 C         139.4300  137.9077  162.6831 C.3     1  UNL1        0.0727
      3 C         140.4277  138.1292  161.5852 C.3     1  UNL1        0.0260
      4 C         141.8853  138.2649  161.9124 C.3     1  UNL1        0.0737
      5 C         142.3451  138.1792  163.3376 C.3     1  UNL1        0.0260
      6 C         141.3474  137.9578  164.4355 C.3     1  UNL1        0.0727
      7 C         143.3673  138.4184  162.0856 C.3     1  UNL1        0.0306
      8 C         143.9742  138.6201  160.7286 C.3     1  UNL1        0.0992
      9 N         142.8671  138.5912  159.7168 N.am    1  UNL1       -0.2523
     10 C         141.5761  138.3717  160.4484 C.2     1  UNL1        0.2289
     11 O         140.2150  138.2758  159.8255 O.2     1  UNL1       -0.2745
     12 C         143.0236  138.7534  158.2340 C.ar    1  UNL1        0.1035
     13 C         142.7917  137.6903  157.2014 C.ar    1  UNL1        0.0444
     14 C         143.0642  138.2870  155.8525 C.ar    1  UNL1        0.1092
     15 N         143.4645  139.7189  156.0512 N.ar    1  UNL1       -0.2064
     16 S         143.4394  140.0071  157.5231 S.2     1  UNL1        0.0283
     17 C         138.8921  137.6006  165.2063 C.3     1  UNL1        0.1063
     18 C         138.1680  138.7681  165.8084 C.3     1  UNL1        0.1483
     19 O         137.3153  138.5743  167.0271 O.3     1  UNL1       -0.3786
     20 H         136.9219  139.4227  167.2847 H       1  UNL1        0.2108
     21 C         140.0829  140.7652  166.9681 C.3     1  UNL1        0.0306
     22 C         139.2541  141.1280  165.7717 C.ar    1  UNL1       -0.0238
     23 C         138.2967  140.1295  165.1918 C.ar    1  UNL1        0.0015
     24 C         137.4679  140.4923  163.9954 C.ar    1  UNL1       -0.0020
     25 C         137.5965  141.8536  163.3788 C.ar    1  UNL1        0.0060
     26 C         138.5539  142.8521  163.9586 C.ar    1  UNL1        0.0748
     27 C         139.3827  142.4893  165.1551 C.ar    1  UNL1        0.0233
     28 C         140.2352  143.6730  165.5046 C.3     1  UNL1        0.2352
     29 O         139.9333  144.7674  164.5242 O.3     1  UNL1       -0.4404
     30 C         138.8942  144.2601  163.5688 C.2     1  UNL1        0.3413
     31 O         138.2997  145.0261  162.4243 O.2     1  UNL1       -0.2449
@<TRIPOS>BOND
     1    21    22    1
     2    22    23   ar
     3    23    18    1
     4    18    19    1
     5    18    17    1
     6    17     1    1
     7     1     2    1
     8     2     3    1
     9     3     4    1
    10     4     5    1
    11     5     6    1
    12     4     7    1
    13     7     8    1
    14     8     9    1
    15     9    12    1
    16    12    13   ar
    17    13    14   ar
    18    14    15   ar
    19    15    16   ar
    20     9    10   am
    21    10    11    2
    22    23    24   ar
    23    24    25   ar
    24    25    26   ar
    25    26    27   ar
    26    27    28    1
    27    28    29    1
    28    29    30    1
    29    30    31    2
    30    27    22   ar
    31     6     1    1
    32    16    12   ar
    33    30    26    1
    34    10     4    1
    35    19    20    1
@<TRIPOS>MOLECULE
*****
 31 35 0 0 0
SMALL
GASTEIGER

@<TRIPOS>ATOM
      1 N         138.5836  141.3734  164.0041 N.3     1  UNL1       -0.2703
      2 C         139.0663  141.0866  162.6132 C.3     1  UNL1        0.0727
      3 C         139.4808  142.2147  161.7157 C.3     1  UNL1        0.0260
      4 C         139.4125  143.6296  162.2091 C.3     1  UNL1        0.0737
      5 C         138.9297  143.9164  163.6000 C.3     1  UNL1        0.0260
      6 C         138.5153  142.7883  164.4975 C.3     1  UNL1        0.0727
      7 C         139.3987  145.0876  162.5616 C.3     1  UNL1        0.0306
      8 C         139.8912  145.8569  161.3718 C.3     1  UNL1        0.0992
      9 N         140.2094  144.8744  160.2838 N.am    1  UNL1       -0.2523
     10 C         139.9135  143.4979  160.8013 C.2     1  UNL1        0.2289
     11 O         140.0880  142.2149  160.0440 O.2     1  UNL1       -0.2745
     12 C         140.7317  145.2096  158.9183 C.ar    1  UNL1        0.1035
     13 C         140.0778  146.1226  157.9239 C.ar    1  UNL1        0.0444
     14 C         140.9416  146.1678  156.6984 C.ar    1  UNL1        0.1092
     15 N         142.1293  145.2828  156.9353 N.ar    1  UNL1       -0.2064
     16 S         141.9995  144.6906  158.3074 S.2     1  UNL1        0.0283
     17 C         138.1691  140.2453  164.9017 C.3     1  UNL1        0.1063
     18 C         139.1886  139.5553  165.7586 C.3     1  UNL1        0.1483
     19 O         139.7907  138.2569  165.3096 O.3     1  UNL1       -0.3786
     20 H         140.4263  137.9483  165.9742 H       1  UNL1        0.2108
     21 C         141.6369  141.2838  165.8937 C.3     1  UNL1        0.0306
     22 C         140.8302  141.0279  167.1322 C.ar    1  UNL1       -0.0238
     23 C         139.6061  140.1637  167.0647 C.ar    1  UNL1        0.0015
     24 C         138.7994  139.9078  168.3031 C.ar    1  UNL1       -0.0020
     25 C         139.2168  140.5162  169.6091 C.ar    1  UNL1        0.0060
     26 C         140.4409  141.3804  169.6766 C.ar    1  UNL1        0.0748
     27 C         141.2476  141.6363  168.4381 C.ar    1  UNL1        0.0233
     28 C         142.3983  142.5240  168.8096 C.3     1  UNL1        0.2352
     29 O         142.3028  142.8167  170.2777 O.3     1  UNL1       -0.4404
     30 C         141.0931  142.1100  170.8135 C.2     1  UNL1        0.3413
     31 O         140.6187  142.1293  172.2364 O.2     1  UNL1       -0.2449
@<TRIPOS>BOND
     1    21    22    1
     2    22    23   ar
     3    23    18    1
     4    18    19    1
     5    18    17    1
     6    17     1    1
     7     1     2    1
     8     2     3    1
     9     3     4    1
    10     4     5    1
    11     5     6    1
    12     4     7    1
    13     7     8    1
    14     8     9    1
    15     9    12    1
    16    12    13   ar
    17    13    14   ar
    18    14    15   ar
    19    15    16   ar
    20     9    10   am
    21    10    11    2
    22    23    24   ar
    23    24    25   ar
    24    25    26   ar
    25    26    27   ar
    26    27    28    1
    27    28    29    1
    28    29    30    1
    29    30    31    2
    30    27    22   ar
    31     6     1    1
    32    16    12   ar
    33    30    26    1
    34    10     4    1
    35    19    20    1
@<TRIPOS>MOLECULE
*****
 31 35 0 0 0
SMALL
GASTEIGER

@<TRIPOS>ATOM
      1 N         139.9130  138.3389  163.1329 N.3     1  UNL1       -0.2703
      2 C         139.1717  139.0915  164.1978 C.3     1  UNL1        0.0727
      3 C         139.8497  139.4178  165.4954 C.3     1  UNL1        0.0260
      4 C         141.2689  138.9916  165.7280 C.3     1  UNL1        0.0737
      5 C         142.0102  138.2390  164.6631 C.3     1  UNL1        0.0260
      6 C         141.3322  137.9127  163.3655 C.3     1  UNL1        0.0727
      7 C         142.6766  138.6328  166.1020 C.3     1  UNL1        0.0306
      8 C         142.9360  139.1534  167.4847 C.3     1  UNL1        0.0992
      9 N         141.6886  139.8341  167.9652 N.am    1  UNL1       -0.2523
     10 C         140.6583  139.7340  166.8796 C.2     1  UNL1        0.2289
     11 O         139.2626  140.2804  166.9356 O.2     1  UNL1       -0.2745
     12 C         141.5039  140.4981  169.2974 C.ar    1  UNL1        0.1035
     13 C         142.2878  141.6671  169.8161 C.ar    1  UNL1        0.0444
     14 C         141.7713  142.0012  171.1841 C.ar    1  UNL1        0.1092
     15 N         140.6682  141.0387  171.5111 N.ar    1  UNL1       -0.2064
     16 S         140.5030  140.1098  170.3449 S.2     1  UNL1        0.0283
     17 C         139.2350  138.0126  161.8352 C.3     1  UNL1        0.1063
     18 C         139.3813  138.9334  160.6602 C.3     1  UNL1        0.1483
     19 O         139.4672  138.3707  159.2724 O.3     1  UNL1       -0.3786
     20 H         139.5585  139.0958  158.6346 H       1  UNL1        0.2108
     21 C         142.0284  140.3450  160.6420 C.3     1  UNL1        0.0306
     22 C         140.7652  141.1228  160.8639 C.ar    1  UNL1       -0.0238
     23 C         139.4416  140.4171  160.8730 C.ar    1  UNL1        0.0015
     24 C         138.1784  141.1949  161.0948 C.ar    1  UNL1       -0.0020
     25 C         138.2387  142.6785  161.3076 C.ar    1  UNL1        0.0060
     26 C         139.5623  143.3842  161.2985 C.ar    1  UNL1        0.0748
     27 C         140.8255  142.6064  161.0766 C.ar    1  UNL1        0.0233
     28 C         141.9757  143.5682  161.1199 C.3     1  UNL1        0.2352
     29 O         141.4234  144.9405  161.3685 O.3     1  UNL1       -0.4404
     30 C         139.9318  144.8268  161.4789 C.2     1  UNL1        0.3413
     31 O         138.9773  145.9571  161.7262 O.2     1  UNL1       -0.2449
@<TRIPOS>BOND
     1    21    22    1
     2    22    23   ar
     3    23    18    1
     4    18    19    1
     5    18    17    1
     6    17     1    1
     7     1     2    1
     8     2     3    1
     9     3     4    1
    10     4     5    1
    11     5     6    1
    12     4     7    1
    13     7     8    1
    14     8     9    1
    15     9    12    1
    16    12    13   ar
    17    13    14   ar
    18    14    15   ar
    19    15    16   ar
    20     9    10   am
    21    10    11    2
    22    23    24   ar
    23    24    25   ar
    24    25    26   ar
    25    26    27   ar
    26    27    28    1
    27    28    29    1
    28    29    30    1
    29    30    31    2
    30    27    22   ar
    31     6     1    1
    32    16    12   ar
    33    30    26    1
    34    10     4    1
    35    19    20    1
@<TRIPOS>MOLECULE
*****
 31 35 0 0 0
SMALL
GASTEIGER

@<TRIPOS>ATOM
      1 N         144.9832  141.5003  163.2754 N.3     1  UNL1       -0.2703
      2 C         144.7029  141.8633  161.8473 C.3     1  UNL1        0.0727
      3 C         144.0979  140.8505  160.9209 C.3     1  UNL1        0.0260
      4 C         143.7734  139.4747  161.4227 C.3     1  UNL1        0.0737
      5 C         144.0537  139.1117  162.8508 C.3     1  UNL1        0.0260
      6 C         144.6586  140.1245  163.7772 C.3     1  UNL1        0.0727
      7 C         143.3971  138.0672  161.7796 C.3     1  UNL1        0.0306
      8 C         142.8296  137.4141  160.5541 C.3     1  UNL1        0.0992
      9 N         142.8552  138.4181  159.4399 N.am    1  UNL1       -0.2523
     10 C         143.4384  139.6915  159.9767 C.2     1  UNL1        0.2289
     11 O         143.6496  140.9593  159.2033 O.2     1  UNL1       -0.2745
     12 C         142.3808  138.1888  158.0355 C.ar    1  UNL1        0.1035
     13 C         142.8709  137.1214  157.1026 C.ar    1  UNL1        0.0444
     14 C         142.1260  137.2595  155.8080 C.ar    1  UNL1        0.1092
     15 N         141.1756  138.4124  155.9407 N.ar    1  UNL1       -0.2064
     16 S         141.3331  138.9867  157.3175 S.2     1  UNL1        0.0283
     17 C         145.5882  142.5131  164.2019 C.3     1  UNL1        0.1063
     18 C         144.7025  143.4332  164.9887 C.3     1  UNL1        0.1483
     19 O         145.2236  144.0970  166.2288 O.3     1  UNL1       -0.3786
     20 H         144.5290  144.6542  166.6135 H       1  UNL1        0.2108
     21 C         142.4357  141.8652  166.1731 C.3     1  UNL1        0.0306
     22 C         142.1624  142.9055  165.1276 C.ar    1  UNL1       -0.0238
     23 C         143.2958  143.6895  164.5354 C.ar    1  UNL1        0.0015
     24 C         143.0225  144.7298  163.4899 C.ar    1  UNL1       -0.0020
     25 C         141.6158  144.9861  163.0366 C.ar    1  UNL1        0.0060
     26 C         140.4824  144.2021  163.6288 C.ar    1  UNL1        0.0748
     27 C         140.7557  143.1618  164.6743 C.ar    1  UNL1        0.0233
     28 C         139.4454  142.5506  165.0736 C.3     1  UNL1        0.2352
     29 O         138.3623  143.2131  164.2750 O.3     1  UNL1       -0.4404
     30 C         139.0032  144.2338  163.3820 C.2     1  UNL1        0.3413
     31 O         138.2901  145.1291  162.4125 O.2     1  UNL1       -0.2449
@<TRIPOS>BOND
     1    21    22    1
     2    22    23   ar
     3    23    18    1
     4    18    19    1
     5    18    17    1
     6    17     1    1
     7     1     2    1
     8     2     3    1
     9     3     4    1
    10     4     5    1
    11     5     6    1
    12     4     7    1
    13     7     8    1
    14     8     9    1
    15     9    12    1
    16    12    13   ar
    17    13    14   ar
    18    14    15   ar
    19    15    16   ar
    20     9    10   am
    21    10    11    2
    22    23    24   ar
    23    24    25   ar
    24    25    26   ar
    25    26    27   ar
    26    27    28    1
    27    28    29    1
    28    29    30    1
    29    30    31    2
    30    27    22   ar
    31     6     1    1
    32    16    12   ar
    33    30    26    1
    34    10     4    1
    35    19    20    1
@<TRIPOS>MOLECULE
*****
 31 35 0 0 0
SMALL
GASTEIGER

@<TRIPOS>ATOM
      1 N         138.4898  139.2873  164.7627 N.3     1  UNL1       -0.2703
      2 C         138.0272  140.5372  164.0744 C.3     1  UNL1        0.0727
      3 C         138.0951  140.6390  162.5794 C.3     1  UNL1        0.0260
      4 C         138.6255  139.4910  161.7728 C.3     1  UNL1        0.0737
      5 C         139.0881  138.2411  162.4611 C.3     1  UNL1        0.0260
      6 C         139.0202  138.1393  163.9561 C.3     1  UNL1        0.0727
      7 C         139.1293  138.4308  160.8388 C.3     1  UNL1        0.0306
      8 C         139.0167  138.9554  159.4380 C.3     1  UNL1        0.0992
      9 N         138.4433  140.3399  159.5063 N.am    1  UNL1       -0.2523
     10 C         138.2016  140.6709  160.9492 C.2     1  UNL1        0.2289
     11 O         137.6353  141.9560  161.4761 O.2     1  UNL1       -0.2745
     12 C         138.1612  141.2360  158.3370 C.ar    1  UNL1        0.1035
     13 C         138.7643  142.5883  158.0969 C.ar    1  UNL1        0.0444
     14 C         138.2023  143.1252  156.8140 C.ar    1  UNL1        0.1092
     15 N         137.2519  142.1048  156.2611 N.ar    1  UNL1       -0.2064
     16 S         137.2266  140.9372  157.2025 S.2     1  UNL1        0.0283
     17 C         138.4219  139.1855  166.2578 C.3     1  UNL1        0.1063
     18 C         139.5594  139.6885  167.0962 C.3     1  UNL1        0.1483
     19 O         139.4137  139.7698  168.5869 O.3     1  UNL1       -0.3786
     20 H         140.2344  140.1128  168.9737 H       1  UNL1        0.2108
     21 C         140.0182  142.5738  166.4147 C.3     1  UNL1        0.0306
     22 C         141.0721  141.5529  166.1032 C.ar    1  UNL1       -0.0238
     23 C         140.8427  140.1102  166.4439 C.ar    1  UNL1        0.0015
     24 C         141.8965  139.0893  166.1324 C.ar    1  UNL1       -0.0020
     25 C         143.1798  139.5110  165.4802 C.ar    1  UNL1        0.0060
     26 C         143.4091  140.9536  165.1395 C.ar    1  UNL1        0.0748
     27 C         142.3553  141.9746  165.4510 C.ar    1  UNL1        0.0233
     28 C         142.8603  143.3138  165.0020 C.3     1  UNL1        0.2352
     29 O         144.2262  143.1205  164.4130 O.3     1  UNL1       -0.4404
     30 C         144.5654  141.6618  164.4980 C.2     1  UNL1        0.3413
     31 O         145.8375  141.0234  164.0245 O.2     1  UNL1       -0.2449
@<TRIPOS>BOND
     1    21    22    1
     2    22    23   ar
     3    23    18    1
     4    18    19    1
     5    18    17    1
     6    17     1    1
     7     1     2    1
     8     2     3    1
     9     3     4    1
    10     4     5    1
    11     5     6    1
    12     4     7    1
    13     7     8    1
    14     8     9    1
    15     9    12    1
    16    12    13   ar
    17    13    14   ar
    18    14    15   ar
    19    15    16   ar
    20     9    10   am
    21    10    11    2
    22    23    24   ar
    23    24    25   ar
    24    25    26   ar
    25    26    27   ar
    26    27    28    1
    27    28    29    1
    28    29    30    1
    29    30    31    2
    30    27    22   ar
    31     6     1    1
    32    16    12   ar
    33    30    26    1
    34    10     4    1
    35    19    20    1
@<TRIPOS>MOLECULE
*****
 31 35 0 0 0
SMALL
GASTEIGER

@<TRIPOS>ATOM
      1 N         139.0454  138.4335  162.8155 N.3     1  UNL1       -0.2703
      2 C         138.7074  139.1145  164.1085 C.3     1  UNL1        0.0727
      3 C         139.7535  139.2643  165.1731 C.3     1  UNL1        0.0260
      4 C         141.1376  138.7331  164.9446 C.3     1  UNL1        0.0737
      5 C         141.4755  138.0521  163.6515 C.3     1  UNL1        0.0260
      6 C         140.4294  137.9023  162.5870 C.3     1  UNL1        0.0727
      7 C         142.5568  138.2549  164.8596 C.3     1  UNL1        0.0306
      8 C         143.2445  138.6137  166.1436 C.3     1  UNL1        0.0992
      9 N         142.2502  139.3136  167.0220 N.am    1  UNL1       -0.2523
     10 C         140.9481  139.3874  166.2810 C.2     1  UNL1        0.2289
     11 O         139.6793  140.0067  166.7875 O.2     1  UNL1       -0.2745
     12 C         142.5121  139.8462  168.3995 C.ar    1  UNL1        0.1035
     13 C         142.4980  139.0494  169.6703 C.ar    1  UNL1        0.0444
     14 C         142.8113  139.9798  170.8044 C.ar    1  UNL1        0.1092
     15 N         143.0191  141.3517  170.2346 N.ar    1  UNL1       -0.2064
     16 S         142.8342  141.2690  168.7482 S.2     1  UNL1        0.0283
     17 C         137.9993  138.2837  161.7509 C.3     1  UNL1        0.1063
     18 C         137.6029  139.4660  160.9172 C.3     1  UNL1        0.1483
     19 O         136.2323  139.5308  160.3114 O.3     1  UNL1       -0.3786
     20 H         136.1403  140.3543  159.8072 H       1  UNL1        0.2108
     21 C         137.4536  141.9511  162.5912 C.3     1  UNL1        0.0306
     22 C         138.5026  141.8260  161.5263 C.ar    1  UNL1       -0.0238
     23 C         138.5773  140.5835  160.6894 C.ar    1  UNL1        0.0015
     24 C         139.6263  140.4584  159.6245 C.ar    1  UNL1       -0.0020
     25 C         140.6006  141.5758  159.3966 C.ar    1  UNL1        0.0060
     26 C         140.5260  142.8184  160.2335 C.ar    1  UNL1        0.0748
     27 C         139.4770  142.9434  161.2984 C.ar    1  UNL1        0.0233
     28 C         139.6468  144.2780  161.9619 C.3     1  UNL1        0.2352
     29 O         140.8008  144.9777  161.3071 O.3     1  UNL1       -0.4404
     30 C         141.3441  144.0756  160.2389 C.2     1  UNL1        0.3413
     31 O         142.5023  144.3776  159.3348 O.2     1  UNL1       -0.2449
@<TRIPOS>BOND
     1    21    22    1
     2    22    23   ar
     3    23    18    1
     4    18    19    1
     5    18    17    1
     6    17     1    1
     7     1     2    1
     8     2     3    1
     9     3     4    1
    10     4     5    1
    11     5     6    1
    12     4     7    1
    13     7     8    1
    14     8     9    1
    15     9    12    1
    16    12    13   ar
    17    13    14   ar
    18    14    15   ar
    19    15    16   ar
    20     9    10   am
    21    10    11    2
    22    23    24   ar
    23    24    25   ar
    24    25    26   ar
    25    26    27   ar
    26    27    28    1
    27    28    29    1
    28    29    30    1
    29    30    31    2
    30    27    22   ar
    31     6     1    1
    32    16    12   ar
    33    30    26    1
    34    10     4    1
    35    19    20    1
@<TRIPOS>MOLECULE
*****
 31 35 0 0 0
SMALL
GASTEIGER

@<TRIPOS>ATOM
      1 N         138.5758  140.6774  161.0652 N.3     1  UNL1       -0.2703
      2 C         139.0757  142.0887  160.9756 C.3     1  UNL1        0.0727
      3 C         139.1185  142.7864  159.6485 C.3     1  UNL1        0.0260
      4 C         138.6613  142.0728  158.4109 C.3     1  UNL1        0.0737
      5 C         138.1613  140.6614  158.5004 C.3     1  UNL1        0.0260
      6 C         138.1186  139.9637  159.8276 C.3     1  UNL1        0.0727
      7 C         138.2394  141.4903  157.0945 C.3     1  UNL1        0.0306
      8 C         138.4508  142.5330  156.0371 C.3     1  UNL1        0.0992
      9 N         139.0035  143.7600  156.7000 N.am    1  UNL1       -0.2523
     10 C         139.1335  143.4755  158.1670 C.2     1  UNL1        0.2289
     11 O         139.6459  144.4267  159.2075 O.2     1  UNL1       -0.2745
     12 C         139.3629  145.0455  156.0159 C.ar    1  UNL1        0.1035
     13 C         138.4016  146.0013  155.3738 C.ar    1  UNL1        0.0444
     14 C         139.1913  147.1475  154.8148 C.ar    1  UNL1        0.1092
     15 N         140.6407  146.9003  155.1115 N.ar    1  UNL1       -0.2064
     16 S         140.7467  145.6011  155.8538 S.2     1  UNL1        0.0283
     17 C         138.5330  139.9796  162.3923 C.3     1  UNL1        0.1063
     18 C         137.8337  140.6204  163.5544 C.3     1  UNL1        0.1483
     19 O         136.5490  141.3642  163.3393 O.3     1  UNL1       -0.3786
     20 H         136.2320  141.7138  164.1867 H       1  UNL1        0.2108
     21 C         139.6287  142.7909  164.5874 C.3     1  UNL1        0.0306
     22 C         139.3166  141.6027  165.4481 C.ar    1  UNL1       -0.0238
     23 C         138.4192  140.5174  164.9316 C.ar    1  UNL1        0.0015
     24 C         138.1071  139.3292  165.7923 C.ar    1  UNL1       -0.0020
     25 C         138.6925  139.2262  167.1695 C.ar    1  UNL1        0.0060
     26 C         139.5900  140.3115  167.6860 C.ar    1  UNL1        0.0748
     27 C         139.9020  141.4997  166.8253 C.ar    1  UNL1        0.0233
     28 C         140.8127  142.4062  167.5992 C.3     1  UNL1        0.2352
     29 O         141.0635  141.7783  168.9381 O.3     1  UNL1       -0.4404
     30 C         140.3078  140.4837  168.9917 C.2     1  UNL1        0.3413
     31 O         140.2756  139.5288  170.1482 O.2     1  UNL1       -0.2449
@<TRIPOS>BOND
     1    21    22    1
     2    22    23   ar
     3    23    18    1
     4    18    19    1
     5    18    17    1
     6    17     1    1
     7     1     2    1
     8     2     3    1
     9     3     4    1
    10     4     5    1
    11     5     6    1
    12     4     7    1
    13     7     8    1
    14     8     9    1
    15     9    12    1
    16    12    13   ar
    17    13    14   ar
    18    14    15   ar
    19    15    16   ar
    20     9    10   am
    21    10    11    2
    22    23    24   ar
    23    24    25   ar
    24    25    26   ar
    25    26    27   ar
    26    27    28    1
    27    28    29    1
    28    29    30    1
    29    30    31    2
    30    27    22   ar
    31     6     1    1
    32    16    12   ar
    33    30    26    1
    34    10     4    1
    35    19    20    1
@<TRIPOS>MOLECULE
*****
 31 35 0 0 0
SMALL
GASTEIGER

@<TRIPOS>ATOM
      1 N         141.7918  138.0461  163.1705 N.3     1  UNL1       -0.2703
      2 C         142.5691  138.7436  164.2471 C.3     1  UNL1        0.0727
      3 C         141.8736  139.2112  165.4912 C.3     1  UNL1        0.0260
      4 C         140.4009  138.9811  165.6586 C.3     1  UNL1        0.0737
      5 C         139.6236  138.2835  164.5820 C.3     1  UNL1        0.0260
      6 C         140.3190  137.8160  163.3380 C.3     1  UNL1        0.0727
      7 C         138.9411  138.8226  165.9652 C.3     1  UNL1        0.0306
      8 C         138.6811  139.4328  167.3107 C.3     1  UNL1        0.0992
      9 N         139.9802  139.9684  167.8356 N.am    1  UNL1       -0.2523
     10 C         141.0431  139.6892  166.8146 C.2     1  UNL1        0.2289
     11 O         142.4934  140.0541  166.9294 O.2     1  UNL1       -0.2745
     12 C         140.1812  140.6614  169.1506 C.ar    1  UNL1        0.1035
     13 C         140.2110  142.1450  169.3698 C.ar    1  UNL1        0.0444
     14 C         140.4358  142.3931  170.8320 C.ar    1  UNL1        0.1092
     15 N         140.5449  141.0628  171.5165 N.ar    1  UNL1       -0.2064
     16 S         140.3875  139.9926  170.4772 S.2     1  UNL1        0.0283
     17 C         142.4873  137.5785  161.9264 C.3     1  UNL1        0.1063
     18 C         142.9550  138.5762  160.9086 C.3     1  UNL1        0.1483
     19 O         143.3048  138.1248  159.5216 O.3     1  UNL1       -0.3786
     20 H         143.5863  138.8888  158.9943 H       1  UNL1        0.2108
     21 C         140.5808  140.3905  160.6407 C.3     1  UNL1        0.0306
     22 C         141.8858  140.9324  161.1440 C.ar    1  UNL1       -0.0238
     23 C         143.0729  140.0253  161.2779 C.ar    1  UNL1        0.0015
     24 C         144.3779  140.5672  161.7811 C.ar    1  UNL1       -0.0020
     25 C         144.4959  142.0162  162.1504 C.ar    1  UNL1        0.0060
     26 C         143.3088  142.9233  162.0165 C.ar    1  UNL1        0.0748
     27 C         142.0038  142.3814  161.5132 C.ar    1  UNL1        0.0233
     28 C         141.0135  143.5077  161.4869 C.3     1  UNL1        0.2352
     29 O         141.7064  144.7457  161.9739 O.3     1  UNL1       -0.4404
     30 C         143.1250  144.3845  162.3012 C.2     1  UNL1        0.3413
     31 O         144.1755  145.3202  162.8218 O.2     1  UNL1       -0.2449
@<TRIPOS>BOND
     1    21    22    1
     2    22    23   ar
     3    23    18    1
     4    18    19    1
     5    18    17    1
     6    17     1    1
     7     1     2    1
     8     2     3    1
     9     3     4    1
    10     4     5    1
    11     5     6    1
    12     4     7    1
    13     7     8    1
    14     8     9    1
    15     9    12    1
    16    12    13   ar
    17    13    14   ar
    18    14    15   ar
    19    15    16   ar
    20     9    10   am
    21    10    11    2
    22    23    24   ar
    23    24    25   ar
    24    25    26   ar
    25    26    27   ar
    26    27    28    1
    27    28    29    1
    28    29    30    1
    29    30    31    2
    30    27    22   ar
    31     6     1    1
    32    16    12   ar
    33    30    26    1
    34    10     4    1
    35    19    20    1
