@<TRIPOS>MOLECULE
*****
 26 28 0 0 0
SMALL
GASTEIGER

@<TRIPOS>ATOM
      1 C         138.9494  142.3114  164.5501 C.3     1  UNL1        0.0258
      2 C         137.6489  141.5753  164.4208 C.3     1  UNL1        0.0692
      3 N         137.0121  141.4088  163.0729 N.3     1  UNL1       -0.2982
      4 H         136.1253  140.9278  163.2236 H       1  UNL1        0.1232
      5 C         138.3742  141.4093  160.8605 C.3     1  UNL1        0.0174
      6 C         137.7321  140.6604  161.9906 C.3     1  UNL1        0.0584
      7 C         137.8101  139.1632  162.0383 C.3     1  UNL1        0.0420
      8 C         138.9407  138.4937  162.7620 C.ar    1  UNL1       -0.0208
      9 C         140.1425  138.0193  162.0001 C.ar    1  UNL1       -0.0042
     10 C         141.2730  137.3498  162.7238 C.ar    1  UNL1       -0.0003
     11 C         141.2016  137.1548  164.2093 C.ar    1  UNL1       -0.0000
     12 C         139.9998  137.6292  164.9712 C.ar    1  UNL1       -0.0003
     13 C         138.8693  138.2986  164.2475 C.ar    1  UNL1       -0.0042
     14 C         140.0896  141.6931  165.3034 C.3     1  UNL1        0.0459
     15 C         141.2868  141.1772  164.5613 C.ar    1  UNL1       -0.0184
     16 C         142.3998  140.5044  165.3086 C.ar    1  UNL1       -0.0040
     17 C         143.5970  139.9885  164.5666 C.ar    1  UNL1       -0.0003
     18 C         143.6811  140.1454  163.0772 C.ar    1  UNL1       -0.0000
     19 C         142.5681  140.8182  162.3299 C.ar    1  UNL1       -0.0003
     20 C         141.3709  141.3341  163.0720 C.ar    1  UNL1       -0.0040
     21 C         140.0327  141.5906  166.7988 C.ar    1  UNL1       -0.0184
     22 C         139.5200  140.3381  167.4458 C.ar    1  UNL1       -0.0040
     23 C         139.4631  140.2356  168.9411 C.ar    1  UNL1       -0.0003
     24 C         139.9187  141.3855  169.7896 C.ar    1  UNL1       -0.0000
     25 C         140.4313  142.6380  169.1427 C.ar    1  UNL1       -0.0003
     26 C         140.4883  142.7405  167.6473 C.ar    1  UNL1       -0.0040
@<TRIPOS>BOND
     1     5     6    1
     2     6     7    1
     3     7     8    1
     4     8     9   ar
     5     9    10   ar
     6    10    11   ar
     7    11    12   ar
     8    12    13   ar
     9     6     3    1
    10     3     2    1
    11     2     1    1
    12     1    14    1
    13    14    15    1
    14    15    16   ar
    15    16    17   ar
    16    17    18   ar
    17    18    19   ar
    18    19    20   ar
    19    14    21    1
    20    21    22   ar
    21    22    23   ar
    22    23    24   ar
    23    24    25   ar
    24    25    26   ar
    25    13     8   ar
    26    20    15   ar
    27    26    21   ar
    28     3     4    1
@<TRIPOS>MOLECULE
*****
 26 28 0 0 0
SMALL
GASTEIGER

@<TRIPOS>ATOM
      1 C         141.1587  143.3369  165.2473 C.3     1  UNL1        0.0258
      2 C         142.1956  142.9732  164.2262 C.3     1  UNL1        0.0692
      3 N         143.5989  142.6666  164.6586 N.3     1  UNL1       -0.2982
      4 H         144.2101  143.3045  164.1487 H       1  UNL1        0.1232
      5 C         145.3205  141.0695  163.5471 C.3     1  UNL1        0.0174
      6 C         144.1576  141.2875  164.4692 C.3     1  UNL1        0.0584
      7 C         143.5534  140.1264  165.2018 C.3     1  UNL1        0.0420
      8 C         142.5628  139.2369  164.5107 C.ar    1  UNL1       -0.0208
      9 C         142.0733  139.5851  163.1363 C.ar    1  UNL1       -0.0042
     10 C         141.0827  138.6956  162.4453 C.ar    1  UNL1       -0.0003
     11 C         140.5815  137.4580  163.1288 C.ar    1  UNL1       -0.0000
     12 C         141.0709  137.1099  164.5033 C.ar    1  UNL1       -0.0003
     13 C         142.0616  137.9993  165.1942 C.ar    1  UNL1       -0.0042
     14 C         140.8327  142.3828  166.3578 C.3     1  UNL1        0.0459
     15 C         141.4297  142.5841  167.7191 C.ar    1  UNL1       -0.0184
     16 C         142.8422  142.1575  167.9892 C.ar    1  UNL1       -0.0040
     17 C         143.4392  142.3589  169.3505 C.ar    1  UNL1       -0.0003
     18 C         142.6238  142.9868  170.4416 C.ar    1  UNL1       -0.0000
     19 C         141.2113  143.4135  170.1715 C.ar    1  UNL1       -0.0003
     20 C         140.6143  143.2121  168.8103 C.ar    1  UNL1       -0.0040
     21 C         139.9097  141.2273  166.1071 C.ar    1  UNL1       -0.0184
     22 C         139.1504  141.1403  164.8164 C.ar    1  UNL1       -0.0040
     23 C         138.2274  139.9849  164.5656 C.ar    1  UNL1       -0.0003
     24 C         138.0636  138.9164  165.6056 C.ar    1  UNL1       -0.0000
     25 C         138.8229  139.0034  166.8963 C.ar    1  UNL1       -0.0003
     26 C         139.7460  140.1589  167.1471 C.ar    1  UNL1       -0.0040
@<TRIPOS>BOND
     1     5     6    1
     2     6     7    1
     3     7     8    1
     4     8     9   ar
     5     9    10   ar
     6    10    11   ar
     7    11    12   ar
     8    12    13   ar
     9     6     3    1
    10     3     2    1
    11     2     1    1
    12     1    14    1
    13    14    15    1
    14    15    16   ar
    15    16    17   ar
    16    17    18   ar
    17    18    19   ar
    18    19    20   ar
    19    14    21    1
    20    21    22   ar
    21    22    23   ar
    22    23    24   ar
    23    24    25   ar
    24    25    26   ar
    25    13     8   ar
    26    20    15   ar
    27    26    21   ar
    28     3     4    1
@<TRIPOS>MOLECULE
*****
 26 28 0 0 0
SMALL
GASTEIGER

@<TRIPOS>ATOM
      1 C         141.1903  143.3376  165.2678 C.3     1  UNL1        0.0258
      2 C         142.2049  142.9440  164.2355 C.3     1  UNL1        0.0692
      3 N         143.6098  142.6205  164.6500 N.3     1  UNL1       -0.2982
      4 H         144.2239  143.2300  164.1098 H       1  UNL1        0.1232
      5 C         145.3133  140.9643  163.5987 C.3     1  UNL1        0.0174
      6 C         144.1361  141.2248  164.4911 C.3     1  UNL1        0.0584
      7 C         143.4851  140.0898  165.2245 C.3     1  UNL1        0.0420
      8 C         142.4899  139.2150  164.5213 C.ar    1  UNL1       -0.0208
      9 C         141.9720  139.6053  163.1687 C.ar    1  UNL1       -0.0042
     10 C         140.9769  138.7305  162.4657 C.ar    1  UNL1       -0.0003
     11 C         140.4996  137.4654  163.1151 C.ar    1  UNL1       -0.0000
     12 C         141.0175  137.0751  164.4676 C.ar    1  UNL1       -0.0003
     13 C         142.0127  137.9499  165.1707 C.ar    1  UNL1       -0.0042
     14 C         140.8515  142.3949  166.3842 C.3     1  UNL1        0.0459
     15 C         139.9163  141.2479  166.1395 C.ar    1  UNL1       -0.0184
     16 C         139.1256  141.1833  164.8665 C.ar    1  UNL1       -0.0040
     17 C         138.1903  140.0364  164.6219 C.ar    1  UNL1       -0.0003
     18 C         138.0457  138.9541  165.6503 C.ar    1  UNL1       -0.0000
     19 C         138.8364  139.0187  166.9233 C.ar    1  UNL1       -0.0003
     20 C         139.7717  140.1656  167.1679 C.ar    1  UNL1       -0.0040
     21 C         141.4480  142.5990  167.7452 C.ar    1  UNL1       -0.0184
     22 C         142.8600  142.1716  168.0171 C.ar    1  UNL1       -0.0040
     23 C         143.4565  142.3757  169.3781 C.ar    1  UNL1       -0.0003
     24 C         142.6411  143.0073  170.4673 C.ar    1  UNL1       -0.0000
     25 C         141.2293  143.4347  170.1955 C.ar    1  UNL1       -0.0003
     26 C         140.6327  143.2306  168.8344 C.ar    1  UNL1       -0.0040
@<TRIPOS>BOND
     1     5     6    1
     2     6     7    1
     3     7     8    1
     4     8     9   ar
     5     9    10   ar
     6    10    11   ar
     7    11    12   ar
     8    12    13   ar
     9     6     3    1
    10     3     2    1
    11     2     1    1
    12     1    14    1
    13    14    15    1
    14    15    16   ar
    15    16    17   ar
    16    17    18   ar
    17    18    19   ar
    18    19    20   ar
    19    14    21    1
    20    21    22   ar
    21    22    23   ar
    22    23    24   ar
    23    24    25   ar
    24    25    26   ar
    25    13     8   ar
    26    20    15   ar
    27    26    21   ar
    28     3     4    1
@<TRIPOS>MOLECULE
*****
 26 28 0 0 0
SMALL
GASTEIGER

@<TRIPOS>ATOM
      1 C         140.3235  143.5049  165.3027 C.3     1  UNL1        0.0258
      2 C         141.5465  143.8852  164.5218 C.3     1  UNL1        0.0692
      3 N         142.4194  142.8190  163.9291 N.3     1  UNL1       -0.2982
      4 H         141.9010  141.9431  163.9958 H       1  UNL1        0.1232
      5 C         144.5179  143.6588  165.2103 C.3     1  UNL1        0.0174
      6 C         143.7815  142.5606  164.5019 C.3     1  UNL1        0.0584
      7 C         144.4072  141.2041  164.3662 C.3     1  UNL1        0.0420
      8 C         143.5400  139.9827  164.2865 C.ar    1  UNL1       -0.0208
      9 C         143.0426  139.3327  165.5435 C.ar    1  UNL1       -0.0042
     10 C         142.1755  138.1114  165.4637 C.ar    1  UNL1       -0.0003
     11 C         141.8057  137.5401  164.1270 C.ar    1  UNL1       -0.0000
     12 C         142.3031  138.1901  162.8700 C.ar    1  UNL1       -0.0003
     13 C         143.1702  139.4114  162.9497 C.ar    1  UNL1       -0.0042
     14 C         140.3863  142.3814  166.2946 C.3     1  UNL1        0.0459
     15 C         139.7325  141.0680  165.9826 C.ar    1  UNL1       -0.0184
     16 C         139.3479  140.1386  167.0953 C.ar    1  UNL1       -0.0040
     17 C         138.6940  138.8251  166.7833 C.ar    1  UNL1       -0.0003
     18 C         138.4248  138.4411  165.3585 C.ar    1  UNL1       -0.0000
     19 C         138.8094  139.3706  164.2458 C.ar    1  UNL1       -0.0003
     20 C         139.4632  140.6840  164.5578 C.ar    1  UNL1       -0.0040
     21 C         141.1029  142.5715  167.5986 C.ar    1  UNL1       -0.0184
     22 C         140.4133  143.2577  168.7403 C.ar    1  UNL1       -0.0040
     23 C         141.1299  143.4477  170.0443 C.ar    1  UNL1       -0.0003
     24 C         142.5361  142.9515  170.2065 C.ar    1  UNL1       -0.0000
     25 C         143.2257  142.2653  169.0649 C.ar    1  UNL1       -0.0003
     26 C         142.5091  142.0753  167.7608 C.ar    1  UNL1       -0.0040
@<TRIPOS>BOND
     1     5     6    1
     2     6     7    1
     3     7     8    1
     4     8     9   ar
     5     9    10   ar
     6    10    11   ar
     7    11    12   ar
     8    12    13   ar
     9     6     3    1
    10     3     2    1
    11     2     1    1
    12     1    14    1
    13    14    15    1
    14    15    16   ar
    15    16    17   ar
    16    17    18   ar
    17    18    19   ar
    18    19    20   ar
    19    14    21    1
    20    21    22   ar
    21    22    23   ar
    22    23    24   ar
    23    24    25   ar
    24    25    26   ar
    25    13     8   ar
    26    20    15   ar
    27    26    21   ar
    28     3     4    1
@<TRIPOS>MOLECULE
*****
 26 28 0 0 0
SMALL
GASTEIGER

@<TRIPOS>ATOM
      1 C         143.6903  141.2031  164.5212 C.3     1  UNL1        0.0258
      2 C         144.5601  139.9887  164.3848 C.3     1  UNL1        0.0692
      3 N         144.8973  139.4568  163.0234 N.3     1  UNL1       -0.2982
      4 H         145.5399  140.1246  162.5973 H       1  UNL1        0.1232
      5 C         143.4926  140.2406  160.9832 C.3     1  UNL1        0.0174
      6 C         143.8067  139.2074  162.0243 C.3     1  UNL1        0.0584
      7 C         143.0301  137.9248  162.0662 C.3     1  UNL1        0.0420
      8 C         141.6973  137.8771  162.7530 C.ar    1  UNL1       -0.0208
      9 C         140.4356  138.0014  161.9514 C.ar    1  UNL1       -0.0042
     10 C         139.1030  137.9537  162.6381 C.ar    1  UNL1       -0.0003
     11 C         139.0320  137.7817  164.1266 C.ar    1  UNL1       -0.0000
     12 C         140.2937  137.6574  164.9282 C.ar    1  UNL1       -0.0003
     13 C         141.6263  137.7051  164.2414 C.ar    1  UNL1       -0.0042
     14 C         142.4714  141.1584  165.3943 C.3     1  UNL1        0.0459
     15 C         141.1072  141.2926  164.7852 C.ar    1  UNL1       -0.0184
     16 C         139.8884  141.2487  165.6584 C.ar    1  UNL1       -0.0040
     17 C         138.5242  141.3829  165.0493 C.ar    1  UNL1       -0.0003
     18 C         138.3788  141.5610  163.5670 C.ar    1  UNL1       -0.0000
     19 C         139.5977  141.6049  162.6939 C.ar    1  UNL1       -0.0003
     20 C         140.9619  141.4707  163.3030 C.ar    1  UNL1       -0.0040
     21 C         142.6167  140.9796  166.8765 C.ar    1  UNL1       -0.0184
     22 C         142.4142  139.6267  167.4921 C.ar    1  UNL1       -0.0040
     23 C         142.5596  139.4479  168.9743 C.ar    1  UNL1       -0.0003
     24 C         142.9073  140.6218  169.8409 C.ar    1  UNL1       -0.0000
     25 C         143.1098  141.9746  169.2253 C.ar    1  UNL1       -0.0003
     26 C         142.9645  142.1535  167.7431 C.ar    1  UNL1       -0.0040
@<TRIPOS>BOND
     1     5     6    1
     2     6     7    1
     3     7     8    1
     4     8     9   ar
     5     9    10   ar
     6    10    11   ar
     7    11    12   ar
     8    12    13   ar
     9     6     3    1
    10     3     2    1
    11     2     1    1
    12     1    14    1
    13    14    15    1
    14    15    16   ar
    15    16    17   ar
    16    17    18   ar
    17    18    19   ar
    18    19    20   ar
    19    14    21    1
    20    21    22   ar
    21    22    23   ar
    22    23    24   ar
    23    24    25   ar
    24    25    26   ar
    25    13     8   ar
    26    20    15   ar
    27    26    21   ar
    28     3     4    1
@<TRIPOS>MOLECULE
*****
 26 28 0 0 0
SMALL
GASTEIGER

@<TRIPOS>ATOM
      1 C         142.5063  143.3373  164.6867 C.3     1  UNL1        0.0258
      2 C         141.3346  144.1480  164.2178 C.3     1  UNL1        0.0692
      3 N         140.0873  143.4604  163.7468 N.3     1  UNL1       -0.2982
      4 H         139.9036  143.7984  162.8021 H       1  UNL1        0.1232
      5 C         138.6021  144.8132  165.3944 C.3     1  UNL1        0.0174
      6 C         138.8097  143.6139  164.5177 C.3     1  UNL1        0.0584
      7 C         137.7396  142.5681  164.4117 C.3     1  UNL1        0.0420
      8 C         138.1098  141.1144  164.4024 C.ar    1  UNL1       -0.0208
      9 C         138.5008  140.4319  165.6796 C.ar    1  UNL1       -0.0042
     10 C         138.8710  138.9784  165.6703 C.ar    1  UNL1       -0.0003
     11 C         138.8502  138.2074  164.3838 C.ar    1  UNL1       -0.0000
     12 C         138.4592  138.8899  163.1066 C.ar    1  UNL1       -0.0003
     13 C         138.0890  140.3434  163.1159 C.ar    1  UNL1       -0.0042
     14 C         142.2900  142.1588  165.5891 C.3     1  UNL1        0.0459
     15 C         142.0612  142.3698  167.0565 C.ar    1  UNL1       -0.0184
     16 C         143.2189  142.3300  168.0093 C.ar    1  UNL1       -0.0040
     17 C         142.9902  142.5410  169.4767 C.ar    1  UNL1       -0.0003
     18 C         141.6037  142.7916  169.9912 C.ar    1  UNL1       -0.0000
     19 C         140.4460  142.8314  169.0383 C.ar    1  UNL1       -0.0003
     20 C         140.6747  142.6204  167.5710 C.ar    1  UNL1       -0.0040
     21 C         142.3024  140.7694  165.0241 C.ar    1  UNL1       -0.0184
     22 C         142.1295  140.5579  163.5491 C.ar    1  UNL1       -0.0040
     23 C         142.1419  139.1685  162.9841 C.ar    1  UNL1       -0.0003
     24 C         142.3273  137.9905  163.8940 C.ar    1  UNL1       -0.0000
     25 C         142.5002  138.2019  165.3689 C.ar    1  UNL1       -0.0003
     26 C         142.4878  139.5914  165.9340 C.ar    1  UNL1       -0.0040
@<TRIPOS>BOND
     1     5     6    1
     2     6     7    1
     3     7     8    1
     4     8     9   ar
     5     9    10   ar
     6    10    11   ar
     7    11    12   ar
     8    12    13   ar
     9     6     3    1
    10     3     2    1
    11     2     1    1
    12     1    14    1
    13    14    15    1
    14    15    16   ar
    15    16    17   ar
    16    17    18   ar
    17    18    19   ar
    18    19    20   ar
    19    14    21    1
    20    21    22   ar
    21    22    23   ar
    22    23    24   ar
    23    24    25   ar
    24    25    26   ar
    25    13     8   ar
    26    20    15   ar
    27    26    21   ar
    28     3     4    1
@<TRIPOS>MOLECULE
*****
 26 28 0 0 0
SMALL
GASTEIGER

@<TRIPOS>ATOM
      1 C         141.5231  142.9327  163.7697 C.3     1  UNL1        0.0258
      2 C         141.4180  144.3461  164.2608 C.3     1  UNL1        0.0692
      3 N         140.2231  145.1783  163.9006 N.3     1  UNL1       -0.2982
      4 H         140.4058  146.1207  164.2455 H       1  UNL1        0.1232
      5 C         138.4763  145.0712  165.8209 C.3     1  UNL1        0.0174
      6 C         138.8621  144.7914  164.3986 C.3     1  UNL1        0.0584
      7 C         137.8869  144.1246  163.4743 C.3     1  UNL1        0.0420
      8 C         137.9420  142.6396  163.2702 C.ar    1  UNL1       -0.0208
      9 C         138.0210  142.0756  161.8825 C.ar    1  UNL1       -0.0042
     10 C         138.0761  140.5906  161.6785 C.ar    1  UNL1       -0.0003
     11 C         138.0522  139.6695  162.8621 C.ar    1  UNL1       -0.0000
     12 C         137.9733  140.2335  164.2498 C.ar    1  UNL1       -0.0003
     13 C         137.9181  141.7185  164.4538 C.ar    1  UNL1       -0.0042
     14 C         141.5847  141.8002  164.7513 C.3     1  UNL1        0.0459
     15 C         141.5272  140.3824  164.2653 C.ar    1  UNL1       -0.0184
     16 C         141.6693  140.0848  162.8020 C.ar    1  UNL1       -0.0040
     17 C         141.6118  138.6669  162.3159 C.ar    1  UNL1       -0.0003
     18 C         141.4122  137.5466  163.2931 C.ar    1  UNL1       -0.0000
     19 C         141.2701  137.8441  164.7564 C.ar    1  UNL1       -0.0003
     20 C         141.3276  139.2620  165.2425 C.ar    1  UNL1       -0.0040
     21 C         141.7038  142.0857  166.2191 C.ar    1  UNL1       -0.0184
     22 C         140.4723  142.3480  167.0345 C.ar    1  UNL1       -0.0040
     23 C         140.5914  142.6334  168.5022 C.ar    1  UNL1       -0.0003
     24 C         141.9419  142.6566  169.1546 C.ar    1  UNL1       -0.0000
     25 C         143.1733  142.3944  168.3393 C.ar    1  UNL1       -0.0003
     26 C         143.0543  142.1089  166.8715 C.ar    1  UNL1       -0.0040
@<TRIPOS>BOND
     1     5     6    1
     2     6     7    1
     3     7     8    1
     4     8     9   ar
     5     9    10   ar
     6    10    11   ar
     7    11    12   ar
     8    12    13   ar
     9     6     3    1
    10     3     2    1
    11     2     1    1
    12     1    14    1
    13    14    15    1
    14    15    16   ar
    15    16    17   ar
    16    17    18   ar
    17    18    19   ar
    18    19    20   ar
    19    14    21    1
    20    21    22   ar
    21    22    23   ar
    22    23    24   ar
    23    24    25   ar
    24    25    26   ar
    25    13     8   ar
    26    20    15   ar
    27    26    21   ar
    28     3     4    1
@<TRIPOS>MOLECULE
*****
 26 28 0 0 0
SMALL
GASTEIGER

@<TRIPOS>ATOM
      1 C         138.7054  139.7556  166.8072 C.3     1  UNL1        0.0258
      2 C         139.5148  139.7714  168.0700 C.3     1  UNL1        0.0692
      3 N         140.5697  140.8186  168.2715 N.3     1  UNL1       -0.2982
      4 H         140.5009  141.4616  167.4827 H       1  UNL1        0.1232
      5 C         142.8834  141.0373  169.4330 C.3     1  UNL1        0.0174
      6 C         142.0115  140.4194  168.3803 C.3     1  UNL1        0.0584
      7 C         142.5815  139.4025  167.4364 C.3     1  UNL1        0.0420
      8 C         143.2994  139.8487  166.1972 C.ar    1  UNL1       -0.0208
      9 C         144.1084  138.8657  165.4041 C.ar    1  UNL1       -0.0042
     10 C         144.8263  139.3120  164.1650 C.ar    1  UNL1       -0.0003
     11 C         144.7353  140.7413  163.7190 C.ar    1  UNL1       -0.0000
     12 C         143.9263  141.7243  164.5122 C.ar    1  UNL1       -0.0003
     13 C         143.2084  141.2780  165.7513 C.ar    1  UNL1       -0.0042
     14 C         139.2793  140.3197  165.5414 C.3     1  UNL1        0.0459
     15 C         139.0436  141.7581  165.1868 C.ar    1  UNL1       -0.0184
     16 C         140.0145  142.8098  165.6350 C.ar    1  UNL1       -0.0040
     17 C         139.7788  144.2481  165.2804 C.ar    1  UNL1       -0.0003
     18 C         138.5722  144.6347  164.4776 C.ar    1  UNL1       -0.0000
     19 C         137.6012  143.5829  164.0294 C.ar    1  UNL1       -0.0003
     20 C         137.8369  142.1446  164.3840 C.ar    1  UNL1       -0.0040
     21 C         140.0889  139.4456  164.6301 C.ar    1  UNL1       -0.0184
     22 C         140.2711  137.9919  164.9520 C.ar    1  UNL1       -0.0040
     23 C         141.0807  137.1177  164.0408 C.ar    1  UNL1       -0.0003
     24 C         141.7081  137.6972  162.8077 C.ar    1  UNL1       -0.0000
     25 C         141.5258  139.1509  162.4858 C.ar    1  UNL1       -0.0003
     26 C         140.7162  140.0251  163.3970 C.ar    1  UNL1       -0.0040
@<TRIPOS>BOND
     1     5     6    1
     2     6     7    1
     3     7     8    1
     4     8     9   ar
     5     9    10   ar
     6    10    11   ar
     7    11    12   ar
     8    12    13   ar
     9     6     3    1
    10     3     2    1
    11     2     1    1
    12     1    14    1
    13    14    15    1
    14    15    16   ar
    15    16    17   ar
    16    17    18   ar
    17    18    19   ar
    18    19    20   ar
    19    14    21    1
    20    21    22   ar
    21    22    23   ar
    22    23    24   ar
    23    24    25   ar
    24    25    26   ar
    25    13     8   ar
    26    20    15   ar
    27    26    21   ar
    28     3     4    1
@<TRIPOS>MOLECULE
*****
 26 28 0 0 0
SMALL
GASTEIGER

@<TRIPOS>ATOM
      1 C         140.8200  143.1723  165.4487 C.3     1  UNL1        0.0258
      2 C         139.3896  143.6219  165.4888 C.3     1  UNL1        0.0692
      3 N         138.6242  143.8029  164.2114 N.3     1  UNL1       -0.2982
      4 H         137.6641  144.0274  164.4727 H       1  UNL1        0.1232
      5 C         139.4505  142.6883  162.0148 C.3     1  UNL1        0.0174
      6 C         138.5515  142.6834  163.2157 C.3     1  UNL1        0.0584
      7 C         137.5799  141.5592  163.4207 C.3     1  UNL1        0.0420
      8 C         138.0559  140.2475  163.9711 C.ar    1  UNL1       -0.0208
      9 C         138.4665  139.1472  163.0379 C.ar    1  UNL1       -0.0042
     10 C         138.9425  137.8356  163.5884 C.ar    1  UNL1       -0.0003
     11 C         139.0079  137.6242  165.0719 C.ar    1  UNL1       -0.0000
     12 C         138.5974  138.7245  166.0051 C.ar    1  UNL1       -0.0003
     13 C         138.1214  140.0361  165.4547 C.ar    1  UNL1       -0.0042
     14 C         141.2436  141.9502  166.2083 C.3     1  UNL1        0.0459
     15 C         141.1920  141.9435  167.7074 C.ar    1  UNL1       -0.0184
     16 C         139.9899  141.3906  168.4140 C.ar    1  UNL1       -0.0040
     17 C         139.9383  141.3840  169.9131 C.ar    1  UNL1       -0.0003
     18 C         141.0888  141.9302  170.7056 C.ar    1  UNL1       -0.0000
     19 C         142.2908  142.4831  169.9990 C.ar    1  UNL1       -0.0003
     20 C         142.3424  142.4898  168.4999 C.ar    1  UNL1       -0.0040
     21 C         141.7188  140.7348  165.4688 C.ar    1  UNL1       -0.0184
     22 C         142.1711  139.5234  166.2292 C.ar    1  UNL1       -0.0040
     23 C         142.6463  138.3079  165.4897 C.ar    1  UNL1       -0.0003
     24 C         142.6692  138.3038  163.9899 C.ar    1  UNL1       -0.0000
     25 C         142.2168  139.5151  163.2295 C.ar    1  UNL1       -0.0003
     26 C         141.7416  140.7306  163.9690 C.ar    1  UNL1       -0.0040
@<TRIPOS>BOND
     1     5     6    1
     2     6     7    1
     3     7     8    1
     4     8     9   ar
     5     9    10   ar
     6    10    11   ar
     7    11    12   ar
     8    12    13   ar
     9     6     3    1
    10     3     2    1
    11     2     1    1
    12     1    14    1
    13    14    15    1
    14    15    16   ar
    15    16    17   ar
    16    17    18   ar
    17    18    19   ar
    18    19    20   ar
    19    14    21    1
    20    21    22   ar
    21    22    23   ar
    22    23    24   ar
    23    24    25   ar
    24    25    26   ar
    25    13     8   ar
    26    20    15   ar
    27    26    21   ar
    28     3     4    1
