@<TRIPOS>MOLECULE
*****
 29 32 0 0 0
SMALL
GASTEIGER

@<TRIPOS>ATOM
      1 O         141.9561  139.7144  160.3221 O.2     1  UNL1       -0.2650
      2 C         142.5347  138.3448  160.1240 C.2     1  UNL1        0.3013
      3 N         142.8064  137.4667  161.3093 N.am    1  UNL1       -0.2985
      4 H         143.1862  136.5678  161.1793 H       1  UNL1        0.1498
      5 C         142.4993  137.9582  162.6929 C.3     1  UNL1        0.0748
      6 C         143.4760  138.8439  163.4081 C.3     1  UNL1        0.0369
      7 C         143.1689  139.3354  164.7916 C.3     1  UNL1        0.0737
      8 N         141.8851  138.9411  165.4599 N.3     1  UNL1       -0.2738
      9 C         140.9085  138.0554  164.7447 C.3     1  UNL1        0.0737
     10 C         141.2156  137.5639  163.3612 C.3     1  UNL1        0.0369
     11 C         141.5781  139.4326  166.8435 C.3     1  UNL1        0.0575
     12 C         140.1804  139.8439  167.2003 C.3     1  UNL1        0.0160
     13 C         139.8734  140.3354  168.5839 C.3     1  UNL1        0.0014
     14 C         140.9640  140.4156  169.6106 C.3     1  UNL1        0.0001
     15 C         142.3617  140.0042  169.2537 C.3     1  UNL1        0.0014
     16 C         142.6687  139.5128  167.8702 C.3     1  UNL1        0.0160
     17 C         142.8418  137.8533  158.7404 C.ar    1  UNL1        0.3040
     18 N         143.4427  138.6634  157.6302 N.ar    1  UNL1       -0.1021
     19 N         143.5742  137.7762  156.4277 N.ar    1  UNL1       -0.1067
     20 C         143.0544  136.4179  156.7949 C.ar    1  UNL1        0.2523
     21 O         142.6018  136.4655  158.2242 O.2     1  UNL1       -0.4122
     22 C         142.9974  135.2219  155.8915 C.ar    1  UNL1        0.0827
     23 C         142.3023  135.3159  154.5655 C.ar    1  UNL1        0.0093
     24 C         142.2453  134.1200  153.6621 C.ar    1  UNL1        0.0299
     25 C         142.8832  132.8298  154.0845 C.ar    1  UNL1        0.1424
     26 F         142.8262  131.6338  153.1810 F       1  UNL1       -0.2041
     27 C         143.5783  132.7356  155.4105 C.ar    1  UNL1        0.0594
     28 C         143.6353  133.9317  156.3139 C.ar    1  UNL1        0.1469
     29 F         144.3304  133.8376  157.6399 F       1  UNL1       -0.2039
@<TRIPOS>BOND
     1     1     2    2
     2     2     3   am
     3     3     5    1
     4     5     6    1
     5     6     7    1
     6     7     8    1
     7     8    11    1
     8    11    12    1
     9    12    13    1
    10    13    14    1
    11    14    15    1
    12    15    16    1
    13     8     9    1
    14     9    10    1
    15     2    17    1
    16    17    18   ar
    17    18    19   ar
    18    19    20   ar
    19    20    22    1
    20    22    23   ar
    21    23    24   ar
    22    24    25   ar
    23    25    26    1
    24    25    27   ar
    25    27    28   ar
    26    28    29    1
    27    20    21   ar
    28    10     5    1
    29    21    17   ar
    30    16    11    1
    31    28    22   ar
    32     3     4    1
@<TRIPOS>MOLECULE
*****
 29 32 0 0 0
SMALL
GASTEIGER

@<TRIPOS>ATOM
      1 O         141.8595  139.6286  160.2844 O.2     1  UNL1       -0.2650
      2 C         142.5181  138.2951  160.0898 C.2     1  UNL1        0.3013
      3 N         142.8592  137.4465  161.2788 N.am    1  UNL1       -0.2985
      4 H         143.2915  136.5713  161.1511 H       1  UNL1        0.1498
      5 C         142.5418  137.9315  162.6623 C.3     1  UNL1        0.0748
      6 C         141.2595  137.5228  163.3245 C.3     1  UNL1        0.0369
      7 C         140.9420  138.0078  164.7079 C.3     1  UNL1        0.0737
      8 N         141.9069  138.9016  165.4292 N.3     1  UNL1       -0.2738
      9 C         143.1892  139.3103  164.7670 C.3     1  UNL1        0.0737
     10 C         143.5067  138.8253  163.3835 C.3     1  UNL1        0.0369
     11 C         141.5894  139.3866  166.8127 C.3     1  UNL1        0.0575
     12 C         142.6685  139.4452  167.8529 C.3     1  UNL1        0.0160
     13 C         142.3510  139.9302  169.2364 C.3     1  UNL1        0.0014
     14 C         140.9544  140.3566  169.5796 C.3     1  UNL1        0.0001
     15 C         139.8753  140.2979  168.5393 C.3     1  UNL1        0.0014
     16 C         140.1929  139.8129  167.1559 C.3     1  UNL1        0.0160
     17 C         142.8356  137.8101  158.7063 C.ar    1  UNL1        0.3040
     18 N         143.4871  138.6119  157.6189 N.ar    1  UNL1       -0.1021
     19 N         143.6115  137.7355  156.4078 N.ar    1  UNL1       -0.1067
     20 C         143.0368  136.3921  156.7469 C.ar    1  UNL1        0.2523
     21 O         142.5573  136.4382  158.1674 O.2     1  UNL1       -0.4122
     22 C         142.9559  135.2101  155.8270 C.ar    1  UNL1        0.0827
     23 C         143.5897  133.9087  156.2203 C.ar    1  UNL1        0.0093
     24 C         143.5088  132.7268  155.3004 C.ar    1  UNL1        0.0299
     25 C         142.7940  132.8461  153.9871 C.ar    1  UNL1        0.1424
     26 F         142.7130  131.6641  153.0671 F       1  UNL1       -0.2041
     27 C         142.1601  134.1475  153.5936 C.ar    1  UNL1        0.0594
     28 C         142.2411  135.3295  154.5137 C.ar    1  UNL1        0.1469
     29 F         141.6072  136.6308  154.1203 F       1  UNL1       -0.2039
@<TRIPOS>BOND
     1     1     2    2
     2     2     3   am
     3     3     5    1
     4     5     6    1
     5     6     7    1
     6     7     8    1
     7     8    11    1
     8    11    12    1
     9    12    13    1
    10    13    14    1
    11    14    15    1
    12    15    16    1
    13     8     9    1
    14     9    10    1
    15     2    17    1
    16    17    18   ar
    17    18    19   ar
    18    19    20   ar
    19    20    22    1
    20    22    23   ar
    21    23    24   ar
    22    24    25   ar
    23    25    26    1
    24    25    27   ar
    25    27    28   ar
    26    28    29    1
    27    20    21   ar
    28    10     5    1
    29    21    17   ar
    30    16    11    1
    31    28    22   ar
    32     3     4    1
@<TRIPOS>MOLECULE
*****
 29 32 0 0 0
SMALL
GASTEIGER

@<TRIPOS>ATOM
      1 O         142.2473  140.3004  160.6706 O.2     1  UNL1       -0.2650
      2 C         142.8937  138.9652  160.4479 C.2     1  UNL1        0.3013
      3 N         143.3973  138.1714  161.6168 N.am    1  UNL1       -0.2985
      4 H         143.8215  137.2951  161.4706 H       1  UNL1        0.1498
      5 C         143.2546  138.7128  163.0084 C.3     1  UNL1        0.0748
      6 C         142.1823  138.1824  163.9132 C.3     1  UNL1        0.0369
      7 C         142.0396  138.7237  165.3048 C.3     1  UNL1        0.0737
      8 N         142.9692  139.7956  165.7915 N.3     1  UNL1       -0.2738
      9 C         144.0415  140.3261  164.8867 C.3     1  UNL1        0.0737
     10 C         144.1842  139.7847  163.4952 C.3     1  UNL1        0.0369
     11 C         142.8265  140.3370  167.1832 C.3     1  UNL1        0.0575
     12 C         142.8625  141.8178  167.4192 C.3     1  UNL1        0.0160
     13 C         142.7198  142.3592  168.8109 C.3     1  UNL1        0.0014
     14 C         142.5410  141.4197  169.9664 C.3     1  UNL1        0.0001
     15 C         142.5050  139.9388  169.7303 C.3     1  UNL1        0.0014
     16 C         142.6477  139.3975  168.3387 C.3     1  UNL1        0.0160
     17 C         143.0364  138.4238  159.0562 C.ar    1  UNL1        0.3040
     18 N         143.4878  139.1958  157.8520 N.ar    1  UNL1       -0.1021
     19 N         143.4832  138.2645  156.6760 N.ar    1  UNL1       -0.1067
     20 C         143.0289  136.9171  157.1536 C.ar    1  UNL1        0.2523
     21 O         142.7528  137.0155  158.6246 O.2     1  UNL1       -0.4122
     22 C         142.8774  135.6872  156.3085 C.ar    1  UNL1        0.0827
     23 C         142.5076  135.8130  154.8603 C.ar    1  UNL1        0.0093
     24 C         142.3561  134.5831  154.0152 C.ar    1  UNL1        0.0299
     25 C         142.5743  133.2272  154.6183 C.ar    1  UNL1        0.1424
     26 F         142.4228  131.9972  153.7732 F       1  UNL1       -0.2041
     27 C         142.9442  133.1012  156.0666 C.ar    1  UNL1        0.0594
     28 C         143.0957  134.3312  156.9116 C.ar    1  UNL1        0.1469
     29 F         143.4655  134.2052  158.3599 F       1  UNL1       -0.2039
@<TRIPOS>BOND
     1     1     2    2
     2     2     3   am
     3     3     5    1
     4     5     6    1
     5     6     7    1
     6     7     8    1
     7     8    11    1
     8    11    12    1
     9    12    13    1
    10    13    14    1
    11    14    15    1
    12    15    16    1
    13     8     9    1
    14     9    10    1
    15     2    17    1
    16    17    18   ar
    17    18    19   ar
    18    19    20   ar
    19    20    22    1
    20    22    23   ar
    21    23    24   ar
    22    24    25   ar
    23    25    26    1
    24    25    27   ar
    25    27    28   ar
    26    28    29    1
    27    20    21   ar
    28    10     5    1
    29    21    17   ar
    30    16    11    1
    31    28    22   ar
    32     3     4    1
@<TRIPOS>MOLECULE
*****
 29 32 0 0 0
SMALL
GASTEIGER

@<TRIPOS>ATOM
      1 O         144.4263  139.5447  161.7883 O.2     1  UNL1       -0.2650
      2 C         143.1496  139.4428  161.0075 C.2     1  UNL1        0.3013
      3 N         141.8565  139.8890  161.6228 N.am    1  UNL1       -0.2985
      4 H         141.0185  139.8220  161.1104 H       1  UNL1        0.1498
      5 C         141.8400  140.4371  163.0190 C.3     1  UNL1        0.0748
      6 C         141.8313  141.9204  163.2424 C.3     1  UNL1        0.0369
      7 C         141.8148  142.4685  164.6385 C.3     1  UNL1        0.0737
      8 N         141.8070  141.5334  165.8113 N.3     1  UNL1       -0.2738
      9 C         141.8157  140.0501  165.5880 C.3     1  UNL1        0.0737
     10 C         141.8322  139.5020  164.1919 C.3     1  UNL1        0.0369
     11 C         141.7906  142.0815  167.2075 C.3     1  UNL1        0.0575
     12 C         143.0144  141.9776  168.0686 C.3     1  UNL1        0.0160
     13 C         142.9979  142.5258  169.4648 C.3     1  UNL1        0.0014
     14 C         141.7576  143.1779  169.9998 C.3     1  UNL1        0.0001
     15 C         140.5337  143.2818  169.1387 C.3     1  UNL1        0.0014
     16 C         140.5502  142.7336  167.7426 C.3     1  UNL1        0.0160
     17 C         143.1661  138.8946  159.6113 C.ar    1  UNL1        0.3040
     18 N         143.7133  139.5874  158.3986 N.ar    1  UNL1       -0.1021
     19 N         143.5237  138.6784  157.2205 N.ar    1  UNL1       -0.1067
     20 C         142.8592  137.4239  157.7052 C.ar    1  UNL1        0.2523
     21 O         142.6383  137.5575  159.1828 O.2     1  UNL1       -0.4122
     22 C         142.4821  136.2431  156.8606 C.ar    1  UNL1        0.0827
     23 C         143.2296  134.9503  157.0020 C.ar    1  UNL1        0.0093
     24 C         142.8525  133.7696  156.1574 C.ar    1  UNL1        0.0299
     25 C         141.7277  133.8814  155.1713 C.ar    1  UNL1        0.1424
     26 F         141.3505  132.7006  154.3267 F       1  UNL1       -0.2041
     27 C         140.9801  135.1742  155.0298 C.ar    1  UNL1        0.0594
     28 C         141.3573  136.3550  155.8745 C.ar    1  UNL1        0.1469
     29 F         140.6097  137.6477  155.7330 F       1  UNL1       -0.2039
@<TRIPOS>BOND
     1     1     2    2
     2     2     3   am
     3     3     5    1
     4     5     6    1
     5     6     7    1
     6     7     8    1
     7     8    11    1
     8    11    12    1
     9    12    13    1
    10    13    14    1
    11    14    15    1
    12    15    16    1
    13     8     9    1
    14     9    10    1
    15     2    17    1
    16    17    18   ar
    17    18    19   ar
    18    19    20   ar
    19    20    22    1
    20    22    23   ar
    21    23    24   ar
    22    24    25   ar
    23    25    26    1
    24    25    27   ar
    25    27    28   ar
    26    28    29    1
    27    20    21   ar
    28    10     5    1
    29    21    17   ar
    30    16    11    1
    31    28    22   ar
    32     3     4    1
@<TRIPOS>MOLECULE
*****
 29 32 0 0 0
SMALL
GASTEIGER

@<TRIPOS>ATOM
      1 O         143.7463  139.1549  162.2501 O.2     1  UNL1       -0.2650
      2 C         142.6636  139.3206  161.2253 C.2     1  UNL1        0.3013
      3 N         141.3194  139.8469  161.6328 N.am    1  UNL1       -0.2985
      4 H         140.6087  139.9557  160.9602 H       1  UNL1        0.1498
      5 C         141.0579  140.2075  163.0652 C.3     1  UNL1        0.0748
      6 C         140.3383  139.2440  163.9618 C.3     1  UNL1        0.0369
      7 C         140.0768  139.6046  165.3941 C.3     1  UNL1        0.0737
      8 N         140.5349  140.9287  165.9298 N.3     1  UNL1       -0.2738
      9 C         141.2544  141.8922  165.0333 C.3     1  UNL1        0.0737
     10 C         141.5159  141.5316  163.6010 C.3     1  UNL1        0.0369
     11 C         140.2734  141.2893  167.3622 C.3     1  UNL1        0.0575
     12 C         139.6313  140.2928  168.2813 C.3     1  UNL1        0.0160
     13 C         139.3698  140.6534  169.7137 C.3     1  UNL1        0.0014
     14 C         139.7504  142.0105  170.2269 C.3     1  UNL1        0.0001
     15 C         140.3925  143.0070  169.3078 C.3     1  UNL1        0.0014
     16 C         140.6540  142.6464  167.8755 C.3     1  UNL1        0.0160
     17 C         142.9251  138.9601  159.7929 C.ar    1  UNL1        0.3040
     18 N         143.8500  139.6804  158.8572 N.ar    1  UNL1       -0.1021
     19 N         143.8042  138.9814  157.5308 N.ar    1  UNL1       -0.1067
     20 C         142.8509  137.8291  157.6468 C.ar    1  UNL1        0.2523
     21 O         142.3076  137.8159  159.0449 O.2     1  UNL1       -0.4122
     22 C         142.5022  136.8601  156.5563 C.ar    1  UNL1        0.0827
     23 C         143.5901  136.1342  155.8217 C.ar    1  UNL1        0.0093
     24 C         143.2414  135.1652  154.7312 C.ar    1  UNL1        0.0299
     25 C         141.8047  134.9221  154.3751 C.ar    1  UNL1        0.1424
     26 F         141.4560  133.9530  153.2844 F       1  UNL1       -0.2041
     27 C         140.7167  135.6480  155.1096 C.ar    1  UNL1        0.0594
     28 C         141.0655  136.6170  156.2001 C.ar    1  UNL1        0.1469
     29 F         139.9775  137.3429  156.9346 F       1  UNL1       -0.2039
@<TRIPOS>BOND
     1     1     2    2
     2     2     3   am
     3     3     5    1
     4     5     6    1
     5     6     7    1
     6     7     8    1
     7     8    11    1
     8    11    12    1
     9    12    13    1
    10    13    14    1
    11    14    15    1
    12    15    16    1
    13     8     9    1
    14     9    10    1
    15     2    17    1
    16    17    18   ar
    17    18    19   ar
    18    19    20   ar
    19    20    22    1
    20    22    23   ar
    21    23    24   ar
    22    24    25   ar
    23    25    26    1
    24    25    27   ar
    25    27    28   ar
    26    28    29    1
    27    20    21   ar
    28    10     5    1
    29    21    17   ar
    30    16    11    1
    31    28    22   ar
    32     3     4    1
@<TRIPOS>MOLECULE
*****
 29 32 0 0 0
SMALL
GASTEIGER

@<TRIPOS>ATOM
      1 O         143.3658  138.2364  159.4886 O.2     1  UNL1       -0.2650
      2 C         142.5120  137.7713  158.3464 C.2     1  UNL1        0.3013
      3 N         141.1020  138.2656  158.2143 N.am    1  UNL1       -0.2985
      4 H         140.5416  137.9604  157.4646 H       1  UNL1        0.1498
      5 C         140.5458  139.2250  159.2244 C.3     1  UNL1        0.0748
      6 C         139.7181  138.7152  160.3667 C.3     1  UNL1        0.0369
      7 C         139.1619  139.6746  161.3767 C.3     1  UNL1        0.0737
      8 N         139.4334  141.1438  161.2444 N.3     1  UNL1       -0.2738
      9 C         140.2611  141.6537  160.1021 C.3     1  UNL1        0.0737
     10 C         140.8173  140.6943  159.0921 C.3     1  UNL1        0.0369
     11 C         138.8772  142.1032  162.2545 C.3     1  UNL1        0.0575
     12 C         138.8768  143.5759  161.9693 C.3     1  UNL1        0.0160
     13 C         138.3206  144.5353  162.9794 C.3     1  UNL1        0.0014
     14 C         137.7648  144.0220  164.2747 C.3     1  UNL1        0.0001
     15 C         137.7652  142.5493  164.5598 C.3     1  UNL1        0.0014
     16 C         138.3214  141.5899  163.5497 C.3     1  UNL1        0.0160
     17 C         143.0682  136.8119  157.3363 C.ar    1  UNL1        0.3040
     18 N         143.7979  137.1807  156.0787 N.ar    1  UNL1       -0.1021
     19 N         144.1731  135.9120  155.3716 N.ar    1  UNL1       -0.1067
     20 C         143.6752  134.7593  156.1923 C.ar    1  UNL1        0.2523
     21 O         142.9924  135.3155  157.4065 O.2     1  UNL1       -0.4122
     22 C         143.8326  133.3057  155.8575 C.ar    1  UNL1        0.0827
     23 C         143.1873  132.7458  154.6245 C.ar    1  UNL1        0.0093
     24 C         143.3446  131.2922  154.2898 C.ar    1  UNL1        0.0299
     25 C         144.1473  130.3983  155.1879 C.ar    1  UNL1        0.1424
     26 F         144.3047  128.9446  154.8531 F       1  UNL1       -0.2041
     27 C         144.7926  130.9581  156.4210 C.ar    1  UNL1        0.0594
     28 C         144.6352  132.4118  156.7557 C.ar    1  UNL1        0.1469
     29 F         145.2806  132.9716  157.9887 F       1  UNL1       -0.2039
@<TRIPOS>BOND
     1     1     2    2
     2     2     3   am
     3     3     5    1
     4     5     6    1
     5     6     7    1
     6     7     8    1
     7     8    11    1
     8    11    12    1
     9    12    13    1
    10    13    14    1
    11    14    15    1
    12    15    16    1
    13     8     9    1
    14     9    10    1
    15     2    17    1
    16    17    18   ar
    17    18    19   ar
    18    19    20   ar
    19    20    22    1
    20    22    23   ar
    21    23    24   ar
    22    24    25   ar
    23    25    26    1
    24    25    27   ar
    25    27    28   ar
    26    28    29    1
    27    20    21   ar
    28    10     5    1
    29    21    17   ar
    30    16    11    1
    31    28    22   ar
    32     3     4    1
@<TRIPOS>MOLECULE
*****
 29 32 0 0 0
SMALL
GASTEIGER

@<TRIPOS>ATOM
      1 O         139.5276  138.1850  159.6471 O.2     1  UNL1       -0.2650
      2 C         139.9430  139.4733  159.0007 C.2     1  UNL1        0.3013
      3 N         140.7769  139.4522  157.7541 N.am    1  UNL1       -0.2985
      4 H         141.0495  140.2977  157.3299 H       1  UNL1        0.1498
      5 C         141.1954  138.1428  157.1537 C.3     1  UNL1        0.0748
      6 C         142.4328  137.4531  157.6467 C.3     1  UNL1        0.0369
      7 C         142.8512  136.1437  157.0463 C.3     1  UNL1        0.0737
      8 N         142.0323  135.5241  155.9530 N.3     1  UNL1       -0.2738
      9 C         140.7949  136.2138  155.4600 C.3     1  UNL1        0.0737
     10 C         140.3764  137.5231  156.0604 C.3     1  UNL1        0.0369
     11 C         142.4508  134.2147  155.3526 C.3     1  UNL1        0.0575
     12 C         143.5095  133.3879  156.0201 C.3     1  UNL1        0.0160
     13 C         143.9280  132.0784  155.4197 C.3     1  UNL1        0.0014
     14 C         143.2878  131.5959  154.1519 C.3     1  UNL1        0.0001
     15 C         142.2291  132.4228  153.4845 C.3     1  UNL1        0.0014
     16 C         141.8106  133.7322  154.0849 C.3     1  UNL1        0.0160
     17 C         139.5245  140.7827  159.6011 C.ar    1  UNL1        0.3040
     18 N         139.0187  141.9767  158.8470 N.ar    1  UNL1       -0.1021
     19 N         138.7199  143.0599  159.8408 N.ar    1  UNL1       -0.1067
     20 C         139.0410  142.5353  161.2089 C.ar    1  UNL1        0.2523
     21 O         139.5382  141.1279  161.0607 O.2     1  UNL1       -0.4122
     22 C         138.8911  143.2862  162.4987 C.ar    1  UNL1        0.0827
     23 C         137.6343  143.1477  163.3056 C.ar    1  UNL1        0.0093
     24 C         137.4844  143.8986  164.5954 C.ar    1  UNL1        0.0299
     25 C         138.5915  144.7881  165.0783 C.ar    1  UNL1        0.1424
     26 F         138.4416  145.5391  166.3682 F       1  UNL1       -0.2041
     27 C         139.8484  144.9267  164.2714 C.ar    1  UNL1        0.0594
     28 C         139.9982  144.1757  162.9816 C.ar    1  UNL1        0.1469
     29 F         141.2551  144.3142  162.1747 F       1  UNL1       -0.2039
@<TRIPOS>BOND
     1     1     2    2
     2     2     3   am
     3     3     5    1
     4     5     6    1
     5     6     7    1
     6     7     8    1
     7     8    11    1
     8    11    12    1
     9    12    13    1
    10    13    14    1
    11    14    15    1
    12    15    16    1
    13     8     9    1
    14     9    10    1
    15     2    17    1
    16    17    18   ar
    17    18    19   ar
    18    19    20   ar
    19    20    22    1
    20    22    23   ar
    21    23    24   ar
    22    24    25   ar
    23    25    26    1
    24    25    27   ar
    25    27    28   ar
    26    28    29    1
    27    20    21   ar
    28    10     5    1
    29    21    17   ar
    30    16    11    1
    31    28    22   ar
    32     3     4    1
@<TRIPOS>MOLECULE
*****
 29 32 0 0 0
SMALL
GASTEIGER

@<TRIPOS>ATOM
      1 O         137.7061  143.2608  161.8064 O.2     1  UNL1       -0.2650
      2 C         138.9254  142.4455  162.1201 C.2     1  UNL1        0.3013
      3 N         140.1238  142.5116  161.2204 N.am    1  UNL1       -0.2985
      4 H         140.9241  141.9765  161.4263 H       1  UNL1        0.1498
      5 C         140.1027  143.3930  160.0068 C.3     1  UNL1        0.0748
      6 C         140.5427  144.8233  160.1109 C.3     1  UNL1        0.0369
      7 C         140.5217  145.7046  158.8973 C.3     1  UNL1        0.0737
      8 N         140.0607  145.1557  157.5797 N.3     1  UNL1       -0.2738
      9 C         139.6207  143.7255  157.4756 C.3     1  UNL1        0.0737
     10 C         139.6417  142.8442  158.6891 C.3     1  UNL1        0.0369
     11 C         140.0396  146.0371  156.3661 C.3     1  UNL1        0.0575
     12 C         140.8727  145.6855  155.1693 C.3     1  UNL1        0.0160
     13 C         140.8517  146.5669  153.9557 C.3     1  UNL1        0.0014
     14 C         139.9976  147.7999  153.9389 C.3     1  UNL1        0.0001
     15 C         139.1645  148.1514  155.1358 C.3     1  UNL1        0.0014
     16 C         139.1855  147.2701  156.3493 C.3     1  UNL1        0.0160
     17 C         138.9465  141.5641  163.3337 C.ar    1  UNL1        0.3040
     18 N         137.9452  140.4979  163.6664 N.ar    1  UNL1       -0.1021
     19 N         138.3523  139.8690  164.9660 N.ar    1  UNL1       -0.1067
     20 C         139.6052  140.5466  165.4364 C.ar    1  UNL1        0.2523
     21 O         139.9724  141.5942  164.4276 O.2     1  UNL1       -0.4122
     22 C         140.3586  140.2318  166.6946 C.ar    1  UNL1        0.0827
     23 C         139.6735  140.3355  168.0250 C.ar    1  UNL1        0.0093
     24 C         140.4269  140.0207  169.2832 C.ar    1  UNL1        0.0299
     25 C         141.8655  139.6021  169.2112 C.ar    1  UNL1        0.1424
     26 F         142.6189  139.2873  170.4694 F       1  UNL1       -0.2041
     27 C         142.5507  139.4984  167.8808 C.ar    1  UNL1        0.0594
     28 C         141.7972  139.8132  166.6226 C.ar    1  UNL1        0.1469
     29 F         142.4825  139.7095  165.2922 F       1  UNL1       -0.2039
@<TRIPOS>BOND
     1     1     2    2
     2     2     3   am
     3     3     5    1
     4     5     6    1
     5     6     7    1
     6     7     8    1
     7     8    11    1
     8    11    12    1
     9    12    13    1
    10    13    14    1
    11    14    15    1
    12    15    16    1
    13     8     9    1
    14     9    10    1
    15     2    17    1
    16    17    18   ar
    17    18    19   ar
    18    19    20   ar
    19    20    22    1
    20    22    23   ar
    21    23    24   ar
    22    24    25   ar
    23    25    26    1
    24    25    27   ar
    25    27    28   ar
    26    28    29    1
    27    20    21   ar
    28    10     5    1
    29    21    17   ar
    30    16    11    1
    31    28    22   ar
    32     3     4    1
@<TRIPOS>MOLECULE
*****
 29 32 0 0 0
SMALL
GASTEIGER

@<TRIPOS>ATOM
      1 O         140.6190  138.3516  158.1894 O.2     1  UNL1       -0.2650
      2 C         142.0529  138.0144  158.4727 C.2     1  UNL1        0.3013
      3 N         142.7621  138.6619  159.6248 N.am    1  UNL1       -0.2985
      4 H         143.7033  138.4406  159.8107 H       1  UNL1        0.1498
      5 C         142.0375  139.6467  160.4939 C.3     1  UNL1        0.0748
      6 C         141.9434  141.0853  160.0798 C.3     1  UNL1        0.0369
      7 C         141.2188  142.0700  160.9489 C.3     1  UNL1        0.0737
      8 N         140.5883  141.6161  162.2319 N.3     1  UNL1       -0.2738
      9 C         140.6823  140.1775  162.6460 C.3     1  UNL1        0.0737
     10 C         141.4069  139.1928  161.7770 C.3     1  UNL1        0.0369
     11 C         139.8636  142.6009  163.1010 C.3     1  UNL1        0.0575
     12 C         138.6416  143.3004  162.5839 C.3     1  UNL1        0.0160
     13 C         137.9170  144.2852  163.4530 C.3     1  UNL1        0.0014
     14 C         138.4144  144.5704  164.8391 C.3     1  UNL1        0.0001
     15 C         139.6364  143.8708  165.3561 C.3     1  UNL1        0.0014
     16 C         140.3610  142.8861  164.4871 C.3     1  UNL1        0.0160
     17 C         142.7775  137.0296  157.6036 C.ar    1  UNL1        0.3040
     18 N         143.5574  137.3544  156.3642 N.ar    1  UNL1       -0.1021
     19 N         144.1114  136.0727  155.8159 N.ar    1  UNL1       -0.1067
     20 C         143.6738  134.9559  156.7166 C.ar    1  UNL1        0.2523
     21 O         142.8494  135.5473  157.8214 O.2     1  UNL1       -0.4122
     22 C         144.0028  133.5028  156.5430 C.ar    1  UNL1        0.0827
     23 C         144.6824  132.7503  157.6484 C.ar    1  UNL1        0.0093
     24 C         145.0114  131.2972  157.4748 C.ar    1  UNL1        0.0299
     25 C         144.6609  130.5965  156.1957 C.ar    1  UNL1        0.1424
     26 F         144.9900  129.1434  156.0220 F       1  UNL1       -0.2041
     27 C         143.9814  131.3490  155.0901 C.ar    1  UNL1        0.0594
     28 C         143.6524  132.8021  155.2639 C.ar    1  UNL1        0.1469
     29 F         142.9728  133.5546  154.1583 F       1  UNL1       -0.2039
@<TRIPOS>BOND
     1     1     2    2
     2     2     3   am
     3     3     5    1
     4     5     6    1
     5     6     7    1
     6     7     8    1
     7     8    11    1
     8    11    12    1
     9    12    13    1
    10    13    14    1
    11    14    15    1
    12    15    16    1
    13     8     9    1
    14     9    10    1
    15     2    17    1
    16    17    18   ar
    17    18    19   ar
    18    19    20   ar
    19    20    22    1
    20    22    23   ar
    21    23    24   ar
    22    24    25   ar
    23    25    26    1
    24    25    27   ar
    25    27    28   ar
    26    28    29    1
    27    20    21   ar
    28    10     5    1
    29    21    17   ar
    30    16    11    1
    31    28    22   ar
    32     3     4    1
