@<TRIPOS>MOLECULE
*****
 28 31 0 0 0
SMALL
GASTEIGER

@<TRIPOS>ATOM
      1 C         141.3911  138.6660  161.9321 C.ar    1  UNL1        0.0042
      2 C         141.1087  137.5485  162.8920 C.ar    1  UNL1       -0.0002
      3 C         140.9918  137.8325  164.3602 C.ar    1  UNL1       -0.0043
      4 C         141.1574  139.2341  164.8685 C.ar    1  UNL1       -0.0225
      5 C         141.4398  140.3516  163.9086 C.ar    1  UNL1       -0.0043
      6 C         141.5566  140.0674  162.4403 C.ar    1  UNL1       -0.0002
      7 N         138.9695  138.8512  160.1711 N.pl3   1  UNL1       -0.3425
      8 C         140.2971  138.4745  159.5833 C.ar    1  UNL1        0.1299
      9 C         141.5080  138.3819  160.4638 C.ar    1  UNL1        0.0504
     10 C         142.8356  138.0052  159.8761 C.ar    1  UNL1        0.1033
     11 N         142.9524  137.7211  158.4078 N.ar    1  UNL1       -0.2248
     12 C         141.7416  137.8137  157.5274 C.ar    1  UNL1        0.1667
     13 C         141.5511  137.5922  156.0561 C.ar    1  UNL1        0.0613
     14 C         140.1058  137.8320  155.7346 C.ar    1  UNL1        0.1238
     15 N         139.4029  138.2017  157.0071 N.ar    1  UNL1       -0.1610
     16 N         140.4139  138.1904  158.1151 N.ar    1  UNL1       -0.1990
     17 H         138.8928  139.0377  161.1347 H       1  UNL1        0.1437
     18 H         138.1747  138.9120  159.5932 H       1  UNL1        0.1437
     19 C         141.0405  139.5181  166.3367 C.3     1  UNL1        0.0223
     20 C         142.2603  139.4739  167.2086 C.3     1  UNL1        0.0044
     21 C         142.1433  139.7579  168.6768 C.3     1  UNL1        0.0007
     22 C         140.8067  140.0861  169.2731 C.3     1  UNL1        0.0056
     23 C         139.5870  140.1304  168.4013 C.3     1  UNL1        0.0007
     24 C         139.7038  139.8463  166.9330 C.3     1  UNL1        0.0044
     25 C         140.6898  140.3702  170.7414 C.3     1  UNL1        0.0417
     26 C         140.6661  141.7877  171.2314 C.2     1  UNL1        0.0503
     27 O         141.8856  142.3797  171.8737 O.co2   1  UNL1       -0.5492
     28 O         139.4230  142.6132  171.0792 O.co2   1  UNL1       -0.5492
@<TRIPOS>UNITY_ATOM_ATTR
27 1
charge -1
@<TRIPOS>BOND
     1     7     8    1
     2     8     9   ar
     3     9     1    1
     4     1     2   ar
     5     2     3   ar
     6     3     4   ar
     7    19     4    1
     8    19    20    1
     9    20    21    1
    10    21    22    1
    11    22    25    1
    12    25    26    1
    13    26    27   ar
    14    26    28   ar
    15    22    23    1
    16    23    24    1
    17     4     5   ar
    18     5     6   ar
    19     9    10   ar
    20    10    11   ar
    21    11    12   ar
    22    12    13   ar
    23    13    14   ar
    24    14    15   ar
    25    15    16   ar
    26    16     8   ar
    27     6     1   ar
    28    16    12   ar
    29    24    19    1
    30     7    17    1
    31     7    18    1
@<TRIPOS>MOLECULE
*****
 28 31 0 0 0
SMALL
GASTEIGER

@<TRIPOS>ATOM
      1 C         141.7231  143.8624  161.6422 C.ar    1  UNL1        0.0042
      2 C         142.6527  144.5732  162.5806 C.ar    1  UNL1       -0.0002
      3 C         142.6866  144.1957  164.0319 C.ar    1  UNL1       -0.0043
      4 C         141.7908  143.1074  164.5449 C.ar    1  UNL1       -0.0225
      5 C         140.8611  142.3966  163.6066 C.ar    1  UNL1       -0.0043
      6 C         140.8273  142.7742  162.1552 C.ar    1  UNL1       -0.0002
      7 N         139.7128  145.8600  160.6585 N.pl3   1  UNL1       -0.3425
      8 C         140.6841  145.2388  159.6990 C.ar    1  UNL1        0.1299
      9 C         141.6893  144.2400  160.1909 C.ar    1  UNL1        0.0504
     10 C         142.6606  143.6187  159.2315 C.ar    1  UNL1        0.1033
     11 N         142.6268  143.9963  157.7801 N.ar    1  UNL1       -0.2248
     12 C         141.6216  144.9951  157.2883 C.ar    1  UNL1        0.1667
     13 C         141.3512  145.5589  155.9248 C.ar    1  UNL1        0.0613
     14 C         140.2128  146.5286  156.0416 C.ar    1  UNL1        0.1238
     15 N         139.7796  146.5641  157.4772 N.ar    1  UNL1       -0.1610
     16 N         140.6502  145.6164  158.2477 N.ar    1  UNL1       -0.1990
     17 H         139.7350  145.6122  161.6110 H       1  UNL1        0.1437
     18 H         139.0530  146.5156  160.3357 H       1  UNL1        0.1437
     19 C         141.8246  142.7299  165.9962 C.3     1  UNL1        0.0223
     20 C         140.5622  142.7504  166.8061 C.3     1  UNL1        0.0044
     21 C         140.5962  142.3729  168.2575 C.3     1  UNL1        0.0007
     22 C         141.8923  141.9750  168.8988 C.3     1  UNL1        0.0056
     23 C         143.1547  141.9545  168.0889 C.3     1  UNL1        0.0007
     24 C         143.1208  142.3320  166.6376 C.3     1  UNL1        0.0044
     25 C         141.9262  141.5975  170.3502 C.3     1  UNL1        0.0417
     26 C         140.6444  141.4017  171.1043 C.2     1  UNL1        0.0503
     27 O         139.7588  140.2332  170.7875 O.co2   1  UNL1       -0.5492
     28 O         140.2483  142.3743  172.1753 O.co2   1  UNL1       -0.5492
@<TRIPOS>UNITY_ATOM_ATTR
27 1
charge -1
@<TRIPOS>BOND
     1     7     8    1
     2     8     9   ar
     3     9     1    1
     4     1     2   ar
     5     2     3   ar
     6     3     4   ar
     7    19     4    1
     8    19    20    1
     9    20    21    1
    10    21    22    1
    11    22    25    1
    12    25    26    1
    13    26    27   ar
    14    26    28   ar
    15    22    23    1
    16    23    24    1
    17     4     5   ar
    18     5     6   ar
    19     9    10   ar
    20    10    11   ar
    21    11    12   ar
    22    12    13   ar
    23    13    14   ar
    24    14    15   ar
    25    15    16   ar
    26    16     8   ar
    27     6     1   ar
    28    16    12   ar
    29    24    19    1
    30     7    17    1
    31     7    18    1
@<TRIPOS>MOLECULE
*****
 28 31 0 0 0
SMALL
GASTEIGER

@<TRIPOS>ATOM
      1 C         143.7619  141.1615  161.8867 C.ar    1  UNL1        0.0042
      2 C         144.8367  140.6629  162.8066 C.ar    1  UNL1       -0.0002
      3 C         144.5822  140.5811  164.2826 C.ar    1  UNL1       -0.0043
      4 C         143.2529  140.9978  164.8386 C.ar    1  UNL1       -0.0225
      5 C         142.1780  141.4963  163.9187 C.ar    1  UNL1       -0.0043
      6 C         142.4327  141.5781  162.4427 C.ar    1  UNL1       -0.0002
      7 N         143.2363  138.7800  160.1397 N.pl3   1  UNL1       -0.3425
      8 C         143.7537  140.0525  159.5372 C.ar    1  UNL1        0.1299
      9 C         144.0165  141.2433  160.4107 C.ar    1  UNL1        0.0504
     10 C         144.5339  142.5157  159.8082 C.ar    1  UNL1        0.1033
     11 N         144.7885  142.5976  158.3322 N.ar    1  UNL1       -0.2248
     12 C         144.5257  141.4068  157.4587 C.ar    1  UNL1        0.1667
     13 C         144.6810  141.1911  155.9825 C.ar    1  UNL1        0.0613
     14 C         144.2597  139.7852  155.6726 C.ar    1  UNL1        0.1238
     15 N         143.8439  139.1321  156.9573 N.ar    1  UNL1       -0.1610
     16 N         144.0083  140.1343  158.0612 N.ar    1  UNL1       -0.1990
     17 H         143.0692  138.7263  161.1084 H       1  UNL1        0.1437
     18 H         143.0638  137.9984  159.5664 H       1  UNL1        0.1437
     19 C         142.9983  140.9160  166.3146 C.3     1  UNL1        0.0223
     20 C         142.9924  142.1651  167.1450 C.3     1  UNL1        0.0044
     21 C         142.7379  142.0832  168.6211 C.3     1  UNL1        0.0007
     22 C         142.4893  140.7523  169.2665 C.3     1  UNL1        0.0056
     23 C         142.4952  139.5032  168.4361 C.3     1  UNL1        0.0007
     24 C         142.7497  139.5850  166.9602 C.3     1  UNL1        0.0044
     25 C         142.2347  140.6704  170.7426 C.3     1  UNL1        0.0417
     26 C         140.8458  140.8614  171.2758 C.2     1  UNL1        0.0503
     27 O         140.5003  142.1046  172.0406 O.co2   1  UNL1       -0.5492
     28 O         139.8022  139.8090  171.0441 O.co2   1  UNL1       -0.5492
@<TRIPOS>UNITY_ATOM_ATTR
27 1
charge -1
@<TRIPOS>BOND
     1     7     8    1
     2     8     9   ar
     3     9     1    1
     4     1     2   ar
     5     2     3   ar
     6     3     4   ar
     7    19     4    1
     8    19    20    1
     9    20    21    1
    10    21    22    1
    11    22    25    1
    12    25    26    1
    13    26    27   ar
    14    26    28   ar
    15    22    23    1
    16    23    24    1
    17     4     5   ar
    18     5     6   ar
    19     9    10   ar
    20    10    11   ar
    21    11    12   ar
    22    12    13   ar
    23    13    14   ar
    24    14    15   ar
    25    15    16   ar
    26    16     8   ar
    27     6     1   ar
    28    16    12   ar
    29    24    19    1
    30     7    17    1
    31     7    18    1
@<TRIPOS>MOLECULE
*****
 28 31 0 0 0
SMALL
GASTEIGER

@<TRIPOS>ATOM
      1 C         140.1048  143.0813  161.6891 C.ar    1  UNL1        0.0042
      2 C         140.6907  141.7584  162.0845 C.ar    1  UNL1       -0.0002
      3 C         140.6538  141.3205  163.5187 C.ar    1  UNL1       -0.0043
      4 C         140.0311  142.2056  164.5574 C.ar    1  UNL1       -0.0225
      5 C         139.4453  143.5286  164.1619 C.ar    1  UNL1       -0.0043
      6 C         139.4821  143.9664  162.7276 C.ar    1  UNL1       -0.0002
      7 N         142.1823  145.0417  160.7722 N.pl3   1  UNL1       -0.3425
      8 C         141.1804  144.4994  159.7964 C.ar    1  UNL1        0.1299
      9 C         140.1416  143.5192  160.2548 C.ar    1  UNL1        0.0504
     10 C         139.1398  142.9769  159.2791 C.ar    1  UNL1        0.1033
     11 N         139.1766  143.4147  157.8448 N.ar    1  UNL1       -0.2248
     12 C         140.2154  144.3949  157.3864 C.ar    1  UNL1        0.1667
     13 C         140.4964  145.0060  156.0456 C.ar    1  UNL1        0.0613
     14 C         141.6720  145.9259  156.1928 C.ar    1  UNL1        0.1238
     15 N         142.1175  145.8835  157.6245 N.ar    1  UNL1       -0.1610
     16 N         141.2173  144.9372  158.3622 N.ar    1  UNL1       -0.1990
     17 H         142.1580  144.7543  161.7135 H       1  UNL1        0.1437
     18 H         142.8640  145.6851  160.4713 H       1  UNL1        0.1437
     19 C         139.9943  141.7677  165.9916 C.3     1  UNL1        0.0223
     20 C         139.5123  140.3916  166.3434 C.3     1  UNL1        0.0044
     21 C         139.4755  139.9537  167.7777 C.3     1  UNL1        0.0007
     22 C         139.9207  140.8919  168.8600 C.3     1  UNL1        0.0056
     23 C         140.4028  142.2681  168.5081 C.3     1  UNL1        0.0007
     24 C         140.4396  142.7060  167.0739 C.3     1  UNL1        0.0044
     25 C         139.8839  140.4541  170.2942 C.3     1  UNL1        0.0417
     26 C         140.8903  140.9911  171.2683 C.2     1  UNL1        0.0503
     27 O         142.2877  140.4460  171.2799 O.co2   1  UNL1       -0.5492
     28 O         140.4993  142.0731  172.2307 O.co2   1  UNL1       -0.5492
@<TRIPOS>UNITY_ATOM_ATTR
27 1
charge -1
@<TRIPOS>BOND
     1     7     8    1
     2     8     9   ar
     3     9     1    1
     4     1     2   ar
     5     2     3   ar
     6     3     4   ar
     7    19     4    1
     8    19    20    1
     9    20    21    1
    10    21    22    1
    11    22    25    1
    12    25    26    1
    13    26    27   ar
    14    26    28   ar
    15    22    23    1
    16    23    24    1
    17     4     5   ar
    18     5     6   ar
    19     9    10   ar
    20    10    11   ar
    21    11    12   ar
    22    12    13   ar
    23    13    14   ar
    24    14    15   ar
    25    15    16   ar
    26    16     8   ar
    27     6     1   ar
    28    16    12   ar
    29    24    19    1
    30     7    17    1
    31     7    18    1
@<TRIPOS>MOLECULE
*****
 28 31 0 0 0
SMALL
GASTEIGER

@<TRIPOS>ATOM
      1 C         141.0866  138.7700  161.8039 C.ar    1  UNL1        0.0042
      2 C         141.1330  137.6310  162.7788 C.ar    1  UNL1       -0.0002
      3 C         141.1950  137.9066  164.2519 C.ar    1  UNL1       -0.0043
      4 C         141.2106  139.3214  164.7502 C.ar    1  UNL1       -0.0225
      5 C         141.1642  140.4604  163.7754 C.ar    1  UNL1       -0.0043
      6 C         141.1022  140.1847  162.3022 C.ar    1  UNL1       -0.0002
      7 N         143.6170  138.3411  160.2505 N.pl3   1  UNL1       -0.3425
      8 C         142.2898  138.2798  159.5540 C.ar    1  UNL1        0.1299
      9 C         141.0246  138.4943  160.3307 C.ar    1  UNL1        0.0504
     10 C         139.6976  138.4330  159.6344 C.ar    1  UNL1        0.1033
     11 N         139.6356  138.1572  158.1612 N.ar    1  UNL1       -0.2248
     12 C         140.9008  137.9428  157.3845 C.ar    1  UNL1        0.1667
     13 C         141.1514  137.6547  155.9339 C.ar    1  UNL1        0.0613
     14 C         142.6334  137.5380  155.7338 C.ar    1  UNL1        0.1238
     15 N         143.2987  137.7539  157.0607 N.ar    1  UNL1       -0.1610
     16 N         142.2279  138.0041  158.0809 N.ar    1  UNL1       -0.1990
     17 H         143.6576  138.5221  161.2174 H       1  UNL1        0.1437
     18 H         144.4473  138.2004  159.7407 H       1  UNL1        0.1437
     19 C         141.2726  139.5970  166.2234 C.3     1  UNL1        0.0223
     20 C         140.0350  140.0144  166.9610 C.3     1  UNL1        0.0044
     21 C         140.0970  140.2901  168.4342 C.3     1  UNL1        0.0007
     22 C         141.3966  140.1484  169.1696 C.3     1  UNL1        0.0056
     23 C         142.6342  139.7310  168.4320 C.3     1  UNL1        0.0007
     24 C         142.5722  139.4553  166.9589 C.3     1  UNL1        0.0044
     25 C         141.4586  140.4240  170.6428 C.3     1  UNL1        0.0417
     26 C         141.3527  141.8327  171.1473 C.2     1  UNL1        0.0503
     27 O         142.2680  142.8926  170.6098 O.co2   1  UNL1       -0.5492
     28 O         140.3316  142.1814  172.1892 O.co2   1  UNL1       -0.5492
@<TRIPOS>UNITY_ATOM_ATTR
27 1
charge -1
@<TRIPOS>BOND
     1     7     8    1
     2     8     9   ar
     3     9     1    1
     4     1     2   ar
     5     2     3   ar
     6     3     4   ar
     7    19     4    1
     8    19    20    1
     9    20    21    1
    10    21    22    1
    11    22    25    1
    12    25    26    1
    13    26    27   ar
    14    26    28   ar
    15    22    23    1
    16    23    24    1
    17     4     5   ar
    18     5     6   ar
    19     9    10   ar
    20    10    11   ar
    21    11    12   ar
    22    12    13   ar
    23    13    14   ar
    24    14    15   ar
    25    15    16   ar
    26    16     8   ar
    27     6     1   ar
    28    16    12   ar
    29    24    19    1
    30     7    17    1
    31     7    18    1
@<TRIPOS>MOLECULE
*****
 28 31 0 0 0
SMALL
GASTEIGER

@<TRIPOS>ATOM
      1 C         143.4905  140.4640  161.8780 C.ar    1  UNL1        0.0042
      2 C         144.6341  140.1950  162.8106 C.ar    1  UNL1       -0.0002
      3 C         144.4238  140.2626  164.2942 C.ar    1  UNL1       -0.0043
      4 C         143.0699  140.5993  164.8452 C.ar    1  UNL1       -0.0225
      5 C         141.9263  140.8684  163.9126 C.ar    1  UNL1       -0.0043
      6 C         142.1367  140.8007  162.4289 C.ar    1  UNL1       -0.0002
      7 N         144.5070  142.8662  160.3961 N.pl3   1  UNL1       -0.3425
      8 C         144.2092  141.5975  159.6534 C.ar    1  UNL1        0.1299
      9 C         143.7009  140.3964  160.3943 C.ar    1  UNL1        0.0504
     10 C         143.4031  139.1277  159.6516 C.ar    1  UNL1        0.1033
     11 N         143.6135  139.0600  158.1679 N.ar    1  UNL1       -0.2248
     12 C         144.1218  140.2611  157.4270 C.ar    1  UNL1        0.1667
     13 C         144.4243  140.4914  155.9760 C.ar    1  UNL1        0.0613
     14 C         144.9092  141.9025  155.8220 C.ar    1  UNL1        0.1238
     15 N         144.9063  142.5443  157.1778 N.ar    1  UNL1       -0.1610
     16 N         144.4196  141.5299  158.1698 N.ar    1  UNL1       -0.1990
     17 H         144.3689  142.9106  161.3699 H       1  UNL1        0.1437
     18 H         144.8406  143.6546  159.9098 H       1  UNL1        0.1437
     19 C         142.8595  140.6670  166.3289 C.3     1  UNL1        0.0223
     20 C         142.8212  141.9972  167.0210 C.3     1  UNL1        0.0044
     21 C         142.6108  142.0648  168.5047 C.3     1  UNL1        0.0007
     22 C         142.4389  140.8023  169.2961 C.3     1  UNL1        0.0056
     23 C         142.4772  139.4721  168.6040 C.3     1  UNL1        0.0007
     24 C         142.6876  139.4045  167.1203 C.3     1  UNL1        0.0044
     25 C         142.2285  140.8699  170.7798 C.3     1  UNL1        0.0417
     26 C         140.8384  140.9540  171.3371 C.2     1  UNL1        0.0503
     27 O         139.8543  139.8547  171.0671 O.co2   1  UNL1       -0.5492
     28 O         140.4325  142.1376  172.1644 O.co2   1  UNL1       -0.5492
@<TRIPOS>UNITY_ATOM_ATTR
27 1
charge -1
@<TRIPOS>BOND
     1     7     8    1
     2     8     9   ar
     3     9     1    1
     4     1     2   ar
     5     2     3   ar
     6     3     4   ar
     7    19     4    1
     8    19    20    1
     9    20    21    1
    10    21    22    1
    11    22    25    1
    12    25    26    1
    13    26    27   ar
    14    26    28   ar
    15    22    23    1
    16    23    24    1
    17     4     5   ar
    18     5     6   ar
    19     9    10   ar
    20    10    11   ar
    21    11    12   ar
    22    12    13   ar
    23    13    14   ar
    24    14    15   ar
    25    15    16   ar
    26    16     8   ar
    27     6     1   ar
    28    16    12   ar
    29    24    19    1
    30     7    17    1
    31     7    18    1
@<TRIPOS>MOLECULE
*****
 28 31 0 0 0
SMALL
GASTEIGER

@<TRIPOS>ATOM
      1 C         139.0281  141.8336  161.4468 C.ar    1  UNL1        0.0042
      2 C         140.2413  141.1216  161.9675 C.ar    1  UNL1       -0.0002
      3 C         140.4375  140.9566  163.4454 C.ar    1  UNL1       -0.0043
      4 C         139.4205  141.5037  164.4027 C.ar    1  UNL1       -0.0225
      5 C         138.2073  142.2157  163.8821 C.ar    1  UNL1       -0.0043
      6 C         138.0111  142.3807  162.4041 C.ar    1  UNL1       -0.0002
      7 N         137.5793  139.7241  159.8815 N.pl3   1  UNL1       -0.3425
      8 C         138.1075  140.9437  159.1862 C.ar    1  UNL1        0.1299
      9 C         138.8319  141.9985  159.9688 C.ar    1  UNL1        0.0504
     10 C         139.3601  143.2182  159.2736 C.ar    1  UNL1        0.1033
     11 N         139.1639  143.3831  157.7956 N.ar    1  UNL1       -0.2248
     12 C         138.4395  142.3283  157.0130 C.ar    1  UNL1        0.1667
     13 C         138.0972  142.2165  155.5568 C.ar    1  UNL1        0.0613
     14 C         137.3574  140.9278  155.3522 C.ar    1  UNL1        0.1238
     15 N         137.2425  140.2430  156.6818 N.ar    1  UNL1       -0.1610
     16 N         137.9112  141.1086  157.7082 N.ar    1  UNL1       -0.1990
     17 H         137.7080  139.6159  160.8515 H       1  UNL1        0.1437
     18 H         137.1038  139.0317  159.3678 H       1  UNL1        0.1437
     19 C         139.6168  141.3388  165.8806 C.3     1  UNL1        0.0223
     20 C         139.1704  140.0783  166.5604 C.3     1  UNL1        0.0044
     21 C         139.3667  139.9134  168.0384 C.3     1  UNL1        0.0007
     22 C         140.0092  141.0089  168.8364 C.3     1  UNL1        0.0056
     23 C         140.4556  142.2693  168.1567 C.3     1  UNL1        0.0007
     24 C         140.2594  142.4342  166.6788 C.3     1  UNL1        0.0044
     25 C         140.2055  140.8439  170.3144 C.3     1  UNL1        0.0417
     26 C         141.5542  141.0886  170.9238 C.2     1  UNL1        0.0503
     27 O         142.7122  140.2070  170.5609 O.co2   1  UNL1       -0.5492
     28 O         141.7447  142.2149  171.8959 O.co2   1  UNL1       -0.5492
@<TRIPOS>UNITY_ATOM_ATTR
27 1
charge -1
@<TRIPOS>BOND
     1     7     8    1
     2     8     9   ar
     3     9     1    1
     4     1     2   ar
     5     2     3   ar
     6     3     4   ar
     7    19     4    1
     8    19    20    1
     9    20    21    1
    10    21    22    1
    11    22    25    1
    12    25    26    1
    13    26    27   ar
    14    26    28   ar
    15    22    23    1
    16    23    24    1
    17     4     5   ar
    18     5     6   ar
    19     9    10   ar
    20    10    11   ar
    21    11    12   ar
    22    12    13   ar
    23    13    14   ar
    24    14    15   ar
    25    15    16   ar
    26    16     8   ar
    27     6     1   ar
    28    16    12   ar
    29    24    19    1
    30     7    17    1
    31     7    18    1
@<TRIPOS>MOLECULE
*****
 28 31 0 0 0
SMALL
GASTEIGER

@<TRIPOS>ATOM
      1 C         140.8281  139.3190  161.1020 C.ar    1  UNL1        0.0042
      2 C         140.6348  138.4324  162.2964 C.ar    1  UNL1       -0.0002
      3 C         140.5896  139.0275  163.6726 C.ar    1  UNL1       -0.0043
      4 C         140.7377  140.5090  163.8544 C.ar    1  UNL1       -0.0225
      5 C         140.9310  141.3956  162.6600 C.ar    1  UNL1       -0.0043
      6 C         140.9762  140.8005  161.2837 C.ar    1  UNL1       -0.0002
      7 N         143.4632  138.5804  159.8731 N.pl3   1  UNL1       -0.3425
      8 C         142.1909  138.3546  159.1114 C.ar    1  UNL1        0.1299
      9 C         140.8733  138.7239  159.7258 C.ar    1  UNL1        0.0504
     10 C         139.6010  138.4981  158.9641 C.ar    1  UNL1        0.1033
     11 N         139.6462  137.9030  157.5879 N.ar    1  UNL1       -0.2248
     12 C         140.9638  137.5337  156.9735 C.ar    1  UNL1        0.1667
     13 C         141.3190  136.9344  155.6451 C.ar    1  UNL1        0.0613
     14 C         142.8108  136.7898  155.5858 C.ar    1  UNL1        0.1238
     15 N         143.3777  137.2997  156.8776 N.ar    1  UNL1       -0.1610
     16 N         142.2362  137.7595  157.7352 N.ar    1  UNL1       -0.1990
     17 H         143.4335  138.9710  160.7763 H       1  UNL1        0.1437
     18 H         144.3280  138.3380  159.4698 H       1  UNL1        0.1437
     19 C         140.6925  141.1041  165.2305 C.3     1  UNL1        0.0223
     20 C         140.2169  142.5136  165.4229 C.3     1  UNL1        0.0044
     21 C         140.1717  143.1086  166.7992 C.3     1  UNL1        0.0007
     22 C         140.6020  142.2941  167.9829 C.3     1  UNL1        0.0056
     23 C         141.0776  140.8846  167.7905 C.3     1  UNL1        0.0007
     24 C         141.1228  140.2896  166.4144 C.3     1  UNL1        0.0044
     25 C         140.5569  142.8891  169.3592 C.3     1  UNL1        0.0417
     26 C         140.0109  142.0890  170.5045 C.2     1  UNL1        0.0503
     27 O         140.7057  142.1117  171.8337 O.co2   1  UNL1       -0.5492
     28 O         138.7703  141.2663  170.3206 O.co2   1  UNL1       -0.5492
@<TRIPOS>UNITY_ATOM_ATTR
27 1
charge -1
@<TRIPOS>BOND
     1     7     8    1
     2     8     9   ar
     3     9     1    1
     4     1     2   ar
     5     2     3   ar
     6     3     4   ar
     7    19     4    1
     8    19    20    1
     9    20    21    1
    10    21    22    1
    11    22    25    1
    12    25    26    1
    13    26    27   ar
    14    26    28   ar
    15    22    23    1
    16    23    24    1
    17     4     5   ar
    18     5     6   ar
    19     9    10   ar
    20    10    11   ar
    21    11    12   ar
    22    12    13   ar
    23    13    14   ar
    24    14    15   ar
    25    15    16   ar
    26    16     8   ar
    27     6     1   ar
    28    16    12   ar
    29    24    19    1
    30     7    17    1
    31     7    18    1
@<TRIPOS>MOLECULE
*****
 28 31 0 0 0
SMALL
GASTEIGER

@<TRIPOS>ATOM
      1 C         139.3539  140.3275  161.2548 C.ar    1  UNL1        0.0042
      2 C         138.3188  139.9043  162.2545 C.ar    1  UNL1       -0.0002
      3 C         138.6678  139.8347  163.7116 C.ar    1  UNL1       -0.0043
      4 C         140.0519  140.1884  164.1691 C.ar    1  UNL1       -0.0225
      5 C         141.0870  140.6116  163.1694 C.ar    1  UNL1       -0.0043
      6 C         140.7379  140.6812  161.7122 C.ar    1  UNL1       -0.0002
      7 N         138.2591  142.8681  160.0943 N.pl3   1  UNL1       -0.3425
      8 C         138.4575  141.6674  159.2173 C.ar    1  UNL1        0.1299
      9 C         139.0049  140.3971  159.7975 C.ar    1  UNL1        0.0504
     10 C         139.2033  139.1965  158.9207 C.ar    1  UNL1        0.1033
     11 N         138.8542  139.2660  157.4634 N.ar    1  UNL1       -0.2248
     12 C         138.3068  140.5363  156.8832 C.ar    1  UNL1        0.1667
     13 C         137.8758  140.9010  155.4935 C.ar    1  UNL1        0.0613
     14 C         137.4111  142.3271  155.5116 C.ar    1  UNL1        0.1238
     15 N         137.5549  142.8438  156.9125 N.ar    1  UNL1       -0.1610
     16 N         138.1084  141.7370  157.7602 N.ar    1  UNL1       -0.1990
     17 H         138.4882  142.8224  161.0507 H       1  UNL1        0.1437
     18 H         137.8998  143.7018  159.7135 H       1  UNL1        0.1437
     19 C         140.4008  140.1188  165.6263 C.3     1  UNL1        0.0223
     20 C         139.3145  139.9864  166.6521 C.3     1  UNL1        0.0044
     21 C         139.6636  139.9168  168.1094 C.3     1  UNL1        0.0007
     22 C         141.0988  139.9796  168.5406 C.3     1  UNL1        0.0056
     23 C         142.1851  140.1120  167.5148 C.3     1  UNL1        0.0007
     24 C         141.8361  140.1816  166.0576 C.3     1  UNL1        0.0044
     25 C         141.4478  139.9101  169.9979 C.3     1  UNL1        0.0417
     26 C         140.4214  140.2647  171.0326 C.2     1  UNL1        0.0503
     27 O         139.2917  139.3214  171.3225 O.co2   1  UNL1       -0.5492
     28 O         140.5248  141.5625  171.7775 O.co2   1  UNL1       -0.5492
@<TRIPOS>UNITY_ATOM_ATTR
27 1
charge -1
@<TRIPOS>BOND
     1     7     8    1
     2     8     9   ar
     3     9     1    1
     4     1     2   ar
     5     2     3   ar
     6     3     4   ar
     7    19     4    1
     8    19    20    1
     9    20    21    1
    10    21    22    1
    11    22    25    1
    12    25    26    1
    13    26    27   ar
    14    26    28   ar
    15    22    23    1
    16    23    24    1
    17     4     5   ar
    18     5     6   ar
    19     9    10   ar
    20    10    11   ar
    21    11    12   ar
    22    12    13   ar
    23    13    14   ar
    24    14    15   ar
    25    15    16   ar
    26    16     8   ar
    27     6     1   ar
    28    16    12   ar
    29    24    19    1
    30     7    17    1
    31     7    18    1
