@<TRIPOS>MOLECULE
*****
 42 47 0 0 0
SMALL
GASTEIGER

@<TRIPOS>ATOM
      1 C         141.0825  137.0197  164.3854 C.3     1  UNL1        0.0311
      2 C         140.3620  137.9299  163.4355 C.ar    1  UNL1       -0.0192
      3 C         140.4261  137.6755  161.9587 C.ar    1  UNL1        0.0105
      4 C         139.7055  138.5858  161.0088 C.ar    1  UNL1        0.0513
      5 C         138.9209  139.7505  161.5358 C.ar    1  UNL1        0.0147
      6 C         138.8568  140.0050  163.0127 C.ar    1  UNL1        0.0025
      7 C         139.5773  139.0947  163.9626 C.ar    1  UNL1        0.0138
      8 C         139.5132  139.3491  165.4394 C.ar    1  UNL1        0.0843
      9 C         138.3397  138.8590  166.2347 C.ar    1  UNL1        0.1179
     10 N         138.2756  139.1134  167.7115 N.ar    1  UNL1       -0.2248
     11 C         139.3851  139.8580  168.3932 C.ar    1  UNL1        0.1633
     12 C         140.5587  140.3481  167.5979 C.ar    1  UNL1        0.1797
     13 N         141.7925  141.1047  167.9920 N.ar    1  UNL1       -0.2222
     14 C         142.6191  141.3178  166.7586 C.ar    1  UNL1        0.1196
     15 C         141.8962  140.6930  165.6023 C.ar    1  UNL1        0.1023
     16 N         140.6227  140.0937  166.1211 N.ar    1  UNL1       -0.2851
     17 N         139.3209  140.1123  169.8701 N.pl3   1  UNL1       -0.3173
     18 H         138.9220  139.4401  170.4685 H       1  UNL1        0.1482
     19 C         139.8646  141.3910  170.4352 C.3     1  UNL1        0.0706
     20 C         140.9213  142.1246  171.2067 C.3     1  UNL1        0.0212
     21 C         139.7496  142.8721  170.6425 C.3     1  UNL1        0.0212
     22 N         139.7696  138.3314  159.5320 N.am    1  UNL1       -0.2680
     23 C         141.0723  138.4744  158.8021 C.2     1  UNL1        0.3092
     24 O         142.3108  138.8718  159.5491 O.2     1  UNL1       -0.2521
     25 N         141.1364  138.2199  157.3253 N.am    1  UNL1       -0.2533
     26 H         138.9567  138.0705  159.0417 H       1  UNL1        0.1564
     27 H         140.3235  137.9591  156.8350 H       1  UNL1        0.1578
     28 C         142.4390  138.3630  156.5953 C.ar    1  UNL1        0.1380
     29 C         143.1645  139.6487  156.3303 C.ar    1  UNL1        0.0509
     30 C         144.4187  139.3258  155.5735 C.ar    1  UNL1        0.0810
     31 N         144.4683  137.8404  155.3708 N.ar    1  UNL1       -0.1683
     32 N         143.2448  137.2453  156.0024 N.ar    1  UNL1       -0.2162
     33 C         142.8894  135.7884  156.0351 C.ar    1  UNL1        0.0842
     34 C         141.7675  135.2707  155.1846 C.ar    1  UNL1        0.0192
     35 C         141.4121  133.8138  155.2174 C.ar    1  UNL1        0.0015
     36 C         142.1786  132.8745  156.1007 C.ar    1  UNL1        0.0001
     37 C         143.3005  133.3922  156.9513 C.ar    1  UNL1        0.0015
     38 C         143.6559  134.8491  156.9185 C.ar    1  UNL1        0.0192
     39 C         145.4434  140.3147  155.1021 C.3     1  UNL1        0.0372
     40 C         145.3627  139.7391  153.7193 C.3     1  UNL1        0.0060
     41 C         145.5241  140.8902  156.4851 C.3     1  UNL1        0.0060
     42 C         146.4681  141.3035  154.6309 C.3     1  UNL1        0.0060
@<TRIPOS>BOND
     1     1     2    1
     2     2     3   ar
     3     3     4   ar
     4     4    22    1
     5    22    23   am
     6    23    24    2
     7    23    25   am
     8    25    28    1
     9    28    29   ar
    10    29    30   ar
    11    30    39    1
    12    39    40    1
    13    39    41    1
    14    39    42    1
    15    30    31   ar
    16    31    32   ar
    17    32    33    1
    18    33    34   ar
    19    34    35   ar
    20    35    36   ar
    21    36    37   ar
    22    37    38   ar
    23     4     5   ar
    24     5     6   ar
    25     6     7   ar
    26     7     8    1
    27     8     9   ar
    28     9    10   ar
    29    10    11   ar
    30    11    17    1
    31    17    19    1
    32    19    20    1
    33    20    21    1
    34    11    12   ar
    35    12    13   ar
    36    13    14   ar
    37    14    15   ar
    38    15    16   ar
    39     7     2   ar
    40    16     8   ar
    41    32    28   ar
    42    38    33   ar
    43    21    19    1
    44    16    12   ar
    45    22    26    1
    46    25    27    1
    47    17    18    1
@<TRIPOS>MOLECULE
*****
 42 47 0 0 0
SMALL
GASTEIGER

@<TRIPOS>ATOM
      1 C         137.9058  141.3708  164.0201 C.3     1  UNL1        0.0311
      2 C         138.5646  140.1293  163.4960 C.ar    1  UNL1       -0.0192
      3 C         138.7825  139.9612  162.0216 C.ar    1  UNL1        0.0105
      4 C         139.4413  138.7196  161.4975 C.ar    1  UNL1        0.0513
      5 C         139.8821  137.6462  162.4480 C.ar    1  UNL1        0.0147
      6 C         139.6641  137.8143  163.9226 C.ar    1  UNL1        0.0025
      7 C         139.0054  139.0558  164.4466 C.ar    1  UNL1        0.0138
      8 C         138.7874  139.2240  165.9211 C.ar    1  UNL1        0.0843
      9 C         137.6865  138.4709  166.6072 C.ar    1  UNL1        0.1179
     10 N         137.4685  138.6390  168.0817 N.ar    1  UNL1       -0.2248
     11 C         138.3514  139.5604  168.8702 C.ar    1  UNL1        0.1633
     12 C         139.4523  140.3135  168.1840 C.ar    1  UNL1        0.1797
     13 N         140.4742  141.2849  168.6959 N.ar    1  UNL1       -0.2222
     14 C         141.3238  141.7171  167.5377 C.ar    1  UNL1        0.1196
     15 C         140.8270  141.0128  166.3101 C.ar    1  UNL1        0.1023
     16 N         139.6703  140.1453  166.7095 N.ar    1  UNL1       -0.2851
     17 N         138.1334  139.7285  170.3447 N.pl3   1  UNL1       -0.3173
     18 H         138.7740  140.2494  170.8808 H       1  UNL1        0.1482
     19 C         136.9392  139.1029  171.0024 C.3     1  UNL1        0.0706
     20 C         135.6585  139.2409  171.7710 C.3     1  UNL1        0.0212
     21 C         136.1515  137.8813  171.3729 C.3     1  UNL1        0.0212
     22 N         139.6593  138.5514  160.0231 N.am    1  UNL1       -0.2680
     23 C         140.9874  138.8963  159.4170 C.2     1  UNL1        0.3092
     24 O         142.0975  139.4093  160.2856 O.2     1  UNL1       -0.2521
     25 N         141.2054  138.7282  157.9426 N.am    1  UNL1       -0.2533
     26 H         138.9306  138.2147  159.4530 H       1  UNL1        0.1564
     27 H         140.4767  138.3914  157.3725 H       1  UNL1        0.1578
     28 C         142.5335  139.0730  157.3366 C.ar    1  UNL1        0.1380
     29 C         143.2576  140.3783  157.4841 C.ar    1  UNL1        0.0509
     30 C         144.5422  140.2852  156.7154 C.ar    1  UNL1        0.0810
     31 N         144.6121  138.9223  156.0927 N.ar    1  UNL1       -0.1683
     32 N         143.3706  138.1732  156.4766 N.ar    1  UNL1       -0.2162
     33 C         143.0266  136.7704  156.0717 C.ar    1  UNL1        0.0842
     34 C         143.3037  135.6306  157.0066 C.ar    1  UNL1        0.0192
     35 C         142.9598  134.2279  156.6017 C.ar    1  UNL1        0.0015
     36 C         142.3387  133.9649  155.2618 C.ar    1  UNL1        0.0001
     37 C         142.0616  135.1047  154.3269 C.ar    1  UNL1        0.0015
     38 C         142.4055  136.5075  154.7318 C.ar    1  UNL1        0.0192
     39 C         145.5757  141.3654  156.5911 C.3     1  UNL1        0.0372
     40 C         145.0341  142.0254  157.8244 C.3     1  UNL1        0.0060
     41 C         146.1172  140.7052  155.3578 C.3     1  UNL1        0.0060
     42 C         146.6091  142.4454  156.4668 C.3     1  UNL1        0.0060
@<TRIPOS>BOND
     1     1     2    1
     2     2     3   ar
     3     3     4   ar
     4     4    22    1
     5    22    23   am
     6    23    24    2
     7    23    25   am
     8    25    28    1
     9    28    29   ar
    10    29    30   ar
    11    30    39    1
    12    39    40    1
    13    39    41    1
    14    39    42    1
    15    30    31   ar
    16    31    32   ar
    17    32    33    1
    18    33    34   ar
    19    34    35   ar
    20    35    36   ar
    21    36    37   ar
    22    37    38   ar
    23     4     5   ar
    24     5     6   ar
    25     6     7   ar
    26     7     8    1
    27     8     9   ar
    28     9    10   ar
    29    10    11   ar
    30    11    17    1
    31    17    19    1
    32    19    20    1
    33    20    21    1
    34    11    12   ar
    35    12    13   ar
    36    13    14   ar
    37    14    15   ar
    38    15    16   ar
    39     7     2   ar
    40    16     8   ar
    41    32    28   ar
    42    38    33   ar
    43    21    19    1
    44    16    12   ar
    45    22    26    1
    46    25    27    1
    47    17    18    1
@<TRIPOS>MOLECULE
*****
 42 47 0 0 0
SMALL
GASTEIGER

@<TRIPOS>ATOM
      1 C         141.5924  137.4704  164.4267 C.3     1  UNL1        0.0311
      2 C         140.9469  138.3230  163.3748 C.ar    1  UNL1       -0.0192
      3 C         140.9800  137.8947  161.9378 C.ar    1  UNL1        0.0105
      4 C         140.3345  138.7474  160.8859 C.ar    1  UNL1        0.0513
      5 C         139.6559  140.0283  161.2713 C.ar    1  UNL1        0.0147
      6 C         139.6227  140.4567  162.7085 C.ar    1  UNL1        0.0025
      7 C         140.2682  139.6040  163.7603 C.ar    1  UNL1        0.0138
      8 C         140.2352  140.0323  165.1974 C.ar    1  UNL1        0.0843
      9 C         141.2116  141.0550  165.6979 C.ar    1  UNL1        0.1179
     10 N         141.1786  141.4833  167.1350 N.ar    1  UNL1       -0.2248
     11 C         140.1690  140.8889  168.0718 C.ar    1  UNL1        0.1633
     12 C         139.1925  139.8662  167.5713 C.ar    1  UNL1        0.1797
     13 N         138.0917  139.1106  168.2550 N.ar    1  UNL1       -0.2222
     14 C         137.4445  138.2153  167.2403 C.ar    1  UNL1        0.1196
     15 C         138.1452  138.4176  165.9296 C.ar    1  UNL1        0.1023
     16 N         139.2256  139.4379  166.1341 N.ar    1  UNL1       -0.2851
     17 N         140.1360  141.3173  169.5090 N.pl3   1  UNL1       -0.3173
     18 H         139.7631  140.7158  170.1935 H       1  UNL1        0.1482
     19 C         140.6710  142.6620  169.9033 C.3     1  UNL1        0.0706
     20 C         140.4651  144.1341  170.1040 C.3     1  UNL1        0.0212
     21 C         141.8038  143.5188  170.3855 C.3     1  UNL1        0.0212
     22 N         140.3676  138.3191  159.4488 N.am    1  UNL1       -0.2680
     23 C         141.6157  138.5079  158.6384 C.2     1  UNL1        0.3092
     24 O         142.8307  139.1251  159.2653 O.2     1  UNL1       -0.2521
     25 N         141.6488  138.0796  157.2013 N.am    1  UNL1       -0.2533
     26 H         139.5701  137.9140  159.0374 H       1  UNL1        0.1564
     27 H         140.8514  137.6745  156.7899 H       1  UNL1        0.1578
     28 C         142.8969  138.2684  156.3910 C.ar    1  UNL1        0.1380
     29 C         143.5288  139.5823  156.0384 C.ar    1  UNL1        0.0509
     30 C         144.7546  139.3025  155.2204 C.ar    1  UNL1        0.0810
     31 N         144.8803  137.8156  155.0675 N.ar    1  UNL1       -0.1683
     32 N         143.7322  137.1765  155.7910 N.ar    1  UNL1       -0.2162
     33 C         143.4661  135.7041  155.8959 C.ar    1  UNL1        0.0842
     34 C         143.1210  134.9148  154.6679 C.ar    1  UNL1        0.0192
     35 C         142.8549  133.4424  154.7729 C.ar    1  UNL1        0.0015
     36 C         142.9340  132.7591  156.1060 C.ar    1  UNL1        0.0001
     37 C         143.2791  133.5483  157.3340 C.ar    1  UNL1        0.0015
     38 C         143.5452  135.0208  157.2290 C.ar    1  UNL1        0.0192
     39 C         145.6904  140.3293  154.6547 C.3     1  UNL1        0.0372
     40 C         145.4624  139.7786  153.2782 C.3     1  UNL1        0.0060
     41 C         145.9184  140.8799  156.0313 C.3     1  UNL1        0.0060
     42 C         146.6262  141.3560  154.0890 C.3     1  UNL1        0.0060
@<TRIPOS>BOND
     1     1     2    1
     2     2     3   ar
     3     3     4   ar
     4     4    22    1
     5    22    23   am
     6    23    24    2
     7    23    25   am
     8    25    28    1
     9    28    29   ar
    10    29    30   ar
    11    30    39    1
    12    39    40    1
    13    39    41    1
    14    39    42    1
    15    30    31   ar
    16    31    32   ar
    17    32    33    1
    18    33    34   ar
    19    34    35   ar
    20    35    36   ar
    21    36    37   ar
    22    37    38   ar
    23     4     5   ar
    24     5     6   ar
    25     6     7   ar
    26     7     8    1
    27     8     9   ar
    28     9    10   ar
    29    10    11   ar
    30    11    17    1
    31    17    19    1
    32    19    20    1
    33    20    21    1
    34    11    12   ar
    35    12    13   ar
    36    13    14   ar
    37    14    15   ar
    38    15    16   ar
    39     7     2   ar
    40    16     8   ar
    41    32    28   ar
    42    38    33   ar
    43    21    19    1
    44    16    12   ar
    45    22    26    1
    46    25    27    1
    47    17    18    1
@<TRIPOS>MOLECULE
*****
 42 47 0 0 0
SMALL
GASTEIGER

@<TRIPOS>ATOM
      1 C         138.5842  144.5709  165.1037 C.3     1  UNL1        0.0311
      2 C         139.6526  144.3218  164.0808 C.ar    1  UNL1       -0.0192
      3 C         139.7103  145.1586  162.8374 C.ar    1  UNL1        0.0105
      4 C         140.7788  144.9094  161.8144 C.ar    1  UNL1        0.0513
      5 C         141.7896  143.8234  162.0351 C.ar    1  UNL1        0.0147
      6 C         141.7320  142.9865  163.2787 C.ar    1  UNL1        0.0025
      7 C         140.6635  143.2357  164.3015 C.ar    1  UNL1        0.0138
      8 C         140.6058  142.3988  165.5450 C.ar    1  UNL1        0.0843
      9 C         141.4439  142.7639  166.7342 C.ar    1  UNL1        0.1179
     10 N         141.3863  141.9271  167.9777 N.ar    1  UNL1       -0.2248
     11 C         140.4905  140.7251  168.0321 C.ar    1  UNL1        0.1633
     12 C         139.6524  140.3600  166.8428 C.ar    1  UNL1        0.1797
     13 N         138.6825  139.2410  166.6040 N.ar    1  UNL1       -0.2222
     14 C         138.1407  139.3863  165.2128 C.ar    1  UNL1        0.1196
     15 C         138.7758  140.5951  164.5919 C.ar    1  UNL1        0.1023
     16 N         139.7100  141.1969  165.5993 N.ar    1  UNL1       -0.2851
     17 N         140.4329  139.8883  169.2757 N.pl3   1  UNL1       -0.3173
     18 H         139.5620  139.6246  169.6516 H       1  UNL1        0.1482
     19 C         141.7020  139.4533  169.9464 C.3     1  UNL1        0.0706
     20 C         142.9420  139.7870  170.7218 C.3     1  UNL1        0.0212
     21 C         142.6604  138.3660  170.3328 C.3     1  UNL1        0.0212
     22 N         140.8364  145.7463  160.5710 N.am    1  UNL1       -0.2680
     23 C         140.2039  145.2516  159.3040 C.2     1  UNL1        0.3092
     24 O         139.5138  143.9200  159.2806 O.2     1  UNL1       -0.2521
     25 N         140.2616  146.0884  158.0605 N.am    1  UNL1       -0.2533
     26 H         141.2894  146.6202  160.5864 H       1  UNL1        0.1564
     27 H         140.7145  146.9624  158.0759 H       1  UNL1        0.1578
     28 C         139.6290  145.5937  156.7935 C.ar    1  UNL1        0.1380
     29 C         139.4567  144.1576  156.3965 C.ar    1  UNL1        0.0509
     30 C         138.7790  144.1246  155.0588 C.ar    1  UNL1        0.0810
     31 N         138.5325  145.5404  154.6290 N.ar    1  UNL1       -0.1683
     32 N         139.0579  146.4483  155.7011 N.ar    1  UNL1       -0.2162
     33 C         139.0189  147.9477  155.6839 C.ar    1  UNL1        0.0842
     34 C         138.4346  148.6962  156.8451 C.ar    1  UNL1        0.0192
     35 C         138.3956  150.1956  156.8279 C.ar    1  UNL1        0.0015
     36 C         138.9409  150.9466  155.6494 C.ar    1  UNL1        0.0001
     37 C         139.5252  150.1981  154.4881 C.ar    1  UNL1        0.0015
     38 C         139.5642  148.6987  154.5054 C.ar    1  UNL1        0.0192
     39 C         138.4122  142.8921  154.2863 C.3     1  UNL1        0.0372
     40 C         139.8217  142.7875  153.7839 C.3     1  UNL1        0.0060
     41 C         137.0027  142.9967  154.7889 C.3     1  UNL1        0.0060
     42 C         138.0453  141.6597  153.5140 C.3     1  UNL1        0.0060
@<TRIPOS>BOND
     1     1     2    1
     2     2     3   ar
     3     3     4   ar
     4     4    22    1
     5    22    23   am
     6    23    24    2
     7    23    25   am
     8    25    28    1
     9    28    29   ar
    10    29    30   ar
    11    30    39    1
    12    39    40    1
    13    39    41    1
    14    39    42    1
    15    30    31   ar
    16    31    32   ar
    17    32    33    1
    18    33    34   ar
    19    34    35   ar
    20    35    36   ar
    21    36    37   ar
    22    37    38   ar
    23     4     5   ar
    24     5     6   ar
    25     6     7   ar
    26     7     8    1
    27     8     9   ar
    28     9    10   ar
    29    10    11   ar
    30    11    17    1
    31    17    19    1
    32    19    20    1
    33    20    21    1
    34    11    12   ar
    35    12    13   ar
    36    13    14   ar
    37    14    15   ar
    38    15    16   ar
    39     7     2   ar
    40    16     8   ar
    41    32    28   ar
    42    38    33   ar
    43    21    19    1
    44    16    12   ar
    45    22    26    1
    46    25    27    1
    47    17    18    1
@<TRIPOS>MOLECULE
*****
 42 47 0 0 0
SMALL
GASTEIGER

@<TRIPOS>ATOM
      1 C         142.6214  143.6771  158.3495 C.3     1  UNL1        0.0311
      2 C         141.3290  143.1457  158.8946 C.ar    1  UNL1       -0.0192
      3 C         141.3364  142.2255  160.0791 C.ar    1  UNL1        0.0105
      4 C         140.0439  141.6941  160.6242 C.ar    1  UNL1        0.0513
      5 C         138.7440  142.0830  159.9847 C.ar    1  UNL1        0.0147
      6 C         138.7365  143.0031  158.8001 C.ar    1  UNL1        0.0025
      7 C         140.0290  143.5345  158.2550 C.ar    1  UNL1        0.0138
      8 C         140.0216  144.4547  157.0704 C.ar    1  UNL1        0.0843
      9 C         139.9888  145.9403  157.2750 C.ar    1  UNL1        0.1179
     10 N         139.9814  146.8604  156.0905 N.ar    1  UNL1       -0.2248
     11 C         140.0068  146.2950  154.7013 C.ar    1  UNL1        0.1633
     12 C         140.0395  144.8094  154.4968 C.ar    1  UNL1        0.1797
     13 N         140.0691  143.9675  153.2556 N.ar    1  UNL1       -0.2222
     14 C         140.0948  142.5271  153.6732 C.ar    1  UNL1        0.1196
     15 C         140.0811  142.4786  155.1723 C.ar    1  UNL1        0.1023
     16 N         140.0469  143.8892  155.6813 N.ar    1  UNL1       -0.2851
     17 N         139.9994  147.2153  153.5167 N.pl3   1  UNL1       -0.3173
     18 H         139.9574  146.8446  152.6056 H       1  UNL1        0.1482
     19 C         140.0560  148.7003  153.7203 C.3     1  UNL1        0.0706
     20 C         139.4854  149.9523  154.3176 C.3     1  UNL1        0.0212
     21 C         140.7249  150.0204  153.4755 C.3     1  UNL1        0.0212
     22 N         140.0513  140.7740  161.8088 N.am    1  UNL1       -0.2680
     23 C         140.3932  141.3055  163.1692 C.2     1  UNL1        0.3092
     24 O         140.7277  142.7571  163.3450 O.2     1  UNL1       -0.2521
     25 N         140.4007  140.3854  164.3537 N.am    1  UNL1       -0.2533
     26 H         139.8317  139.8213  161.6934 H       1  UNL1        0.1564
     27 H         140.1811  139.4326  164.2383 H       1  UNL1        0.1578
     28 C         140.7426  140.9168  165.7142 C.ar    1  UNL1        0.1380
     29 C         139.7884  141.0900  166.8584 C.ar    1  UNL1        0.0509
     30 C         140.5548  141.6486  168.0206 C.ar    1  UNL1        0.0810
     31 N         141.9827  141.8205  167.5946 N.ar    1  UNL1       -0.1683
     32 N         142.0988  141.3682  166.1691 N.ar    1  UNL1       -0.2162
     33 C         143.3512  141.3675  165.3436 C.ar    1  UNL1        0.0842
     34 C         143.9448  140.0694  164.8825 C.ar    1  UNL1        0.0192
     35 C         145.1972  140.0687  164.0570 C.ar    1  UNL1        0.0015
     36 C         145.8560  141.3661  163.6925 C.ar    1  UNL1        0.0001
     37 C         145.2623  142.6642  164.1536 C.ar    1  UNL1        0.0015
     38 C         144.0100  142.6649  164.9791 C.ar    1  UNL1        0.0192
     39 C         139.9921  141.9774  169.3717 C.3     1  UNL1        0.0372
     40 C         140.4385  143.4004  169.2112 C.3     1  UNL1        0.0060
     41 C         139.5456  140.5544  169.5320 C.3     1  UNL1        0.0060
     42 C         139.4293  142.3062  170.7226 C.3     1  UNL1        0.0060
@<TRIPOS>BOND
     1     1     2    1
     2     2     3   ar
     3     3     4   ar
     4     4    22    1
     5    22    23   am
     6    23    24    2
     7    23    25   am
     8    25    28    1
     9    28    29   ar
    10    29    30   ar
    11    30    39    1
    12    39    40    1
    13    39    41    1
    14    39    42    1
    15    30    31   ar
    16    31    32   ar
    17    32    33    1
    18    33    34   ar
    19    34    35   ar
    20    35    36   ar
    21    36    37   ar
    22    37    38   ar
    23     4     5   ar
    24     5     6   ar
    25     6     7   ar
    26     7     8    1
    27     8     9   ar
    28     9    10   ar
    29    10    11   ar
    30    11    17    1
    31    17    19    1
    32    19    20    1
    33    20    21    1
    34    11    12   ar
    35    12    13   ar
    36    13    14   ar
    37    14    15   ar
    38    15    16   ar
    39     7     2   ar
    40    16     8   ar
    41    32    28   ar
    42    38    33   ar
    43    21    19    1
    44    16    12   ar
    45    22    26    1
    46    25    27    1
    47    17    18    1
@<TRIPOS>MOLECULE
*****
 42 47 0 0 0
SMALL
GASTEIGER

@<TRIPOS>ATOM
      1 C         144.8714  139.2511  164.1724 C.3     1  UNL1        0.0311
      2 C         144.1076  139.9968  163.1186 C.ar    1  UNL1       -0.0192
      3 C         144.2662  139.6264  161.6739 C.ar    1  UNL1        0.0105
      4 C         143.5024  140.3722  160.6201 C.ar    1  UNL1        0.0513
      5 C         142.5798  141.4884  161.0112 C.ar    1  UNL1        0.0147
      6 C         142.4211  141.8589  162.4561 C.ar    1  UNL1        0.0025
      7 C         143.1850  141.1131  163.5098 C.ar    1  UNL1        0.0138
      8 C         143.0263  141.4836  164.9546 C.ar    1  UNL1        0.0843
      9 C         143.9261  142.5154  165.5675 C.ar    1  UNL1        0.1179
     10 N         143.7675  142.8859  167.0123 N.ar    1  UNL1       -0.2248
     11 C         142.7091  142.2244  167.8444 C.ar    1  UNL1        0.1633
     12 C         141.8093  141.1925  167.2315 C.ar    1  UNL1        0.1797
     13 N         140.6850  140.3772  167.7984 N.ar    1  UNL1       -0.2222
     14 C         140.1489  139.5029  166.7038 C.ar    1  UNL1        0.1196
     15 C         140.9417  139.7778  165.4605 C.ar    1  UNL1        0.1023
     16 N         141.9679  140.8221  165.7866 N.ar    1  UNL1       -0.2851
     17 N         142.5505  142.5949  169.2893 N.pl3   1  UNL1       -0.3173
     18 H         143.3041  142.4806  169.9123 H       1  UNL1        0.1482
     19 C         141.2437  143.1396  169.7848 C.3     1  UNL1        0.0706
     20 C         140.3058  144.2948  169.9739 C.3     1  UNL1        0.0212
     21 C         139.9181  142.9277  170.4540 C.3     1  UNL1        0.0212
     22 N         143.6610  140.0017  159.1753 N.am    1  UNL1       -0.2680
     23 C         143.0373  138.7422  158.6510 C.2     1  UNL1        0.3092
     24 O         142.2550  137.8532  159.5717 O.2     1  UNL1       -0.2521
     25 N         143.1960  138.3718  157.2063 N.am    1  UNL1       -0.2533
     26 H         144.1745  140.5852  158.5710 H       1  UNL1        0.1564
     27 H         143.7095  138.9553  156.6020 H       1  UNL1        0.1578
     28 C         142.5723  137.1123  156.6820 C.ar    1  UNL1        0.1380
     29 C         143.1454  135.7309  156.7966 C.ar    1  UNL1        0.0509
     30 C         142.1934  134.7779  156.1366 C.ar    1  UNL1        0.0810
     31 N         141.0320  135.5704  155.6141 N.ar    1  UNL1       -0.1683
     32 N         141.2662  137.0131  155.9512 N.ar    1  UNL1       -0.2162
     33 C         140.3543  138.1561  155.6163 C.ar    1  UNL1        0.0842
     34 C         140.0640  138.4887  154.1827 C.ar    1  UNL1        0.0192
     35 C         139.1521  139.6316  153.8478 C.ar    1  UNL1        0.0015
     36 C         138.5305  140.4420  154.9465 C.ar    1  UNL1        0.0001
     37 C         138.8208  140.1093  156.3801 C.ar    1  UNL1        0.0015
     38 C         139.7327  138.9664  156.7150 C.ar    1  UNL1        0.0192
     39 C         142.3716  133.2931  156.0196 C.3     1  UNL1        0.0372
     40 C         141.4222  133.2707  154.8585 C.3     1  UNL1        0.0060
     41 C         143.3211  133.3156  157.1807 C.3     1  UNL1        0.0060
     42 C         142.5498  131.8083  155.9026 C.3     1  UNL1        0.0060
@<TRIPOS>BOND
     1     1     2    1
     2     2     3   ar
     3     3     4   ar
     4     4    22    1
     5    22    23   am
     6    23    24    2
     7    23    25   am
     8    25    28    1
     9    28    29   ar
    10    29    30   ar
    11    30    39    1
    12    39    40    1
    13    39    41    1
    14    39    42    1
    15    30    31   ar
    16    31    32   ar
    17    32    33    1
    18    33    34   ar
    19    34    35   ar
    20    35    36   ar
    21    36    37   ar
    22    37    38   ar
    23     4     5   ar
    24     5     6   ar
    25     6     7   ar
    26     7     8    1
    27     8     9   ar
    28     9    10   ar
    29    10    11   ar
    30    11    17    1
    31    17    19    1
    32    19    20    1
    33    20    21    1
    34    11    12   ar
    35    12    13   ar
    36    13    14   ar
    37    14    15   ar
    38    15    16   ar
    39     7     2   ar
    40    16     8   ar
    41    32    28   ar
    42    38    33   ar
    43    21    19    1
    44    16    12   ar
    45    22    26    1
    46    25    27    1
    47    17    18    1
@<TRIPOS>MOLECULE
*****
 42 47 0 0 0
SMALL
GASTEIGER

@<TRIPOS>ATOM
      1 C         140.1934  138.7732  162.9025 C.3     1  UNL1        0.0311
      2 C         141.5064  138.9249  162.1933 C.ar    1  UNL1       -0.0192
      3 C         141.5948  138.6751  160.7169 C.ar    1  UNL1        0.0105
      4 C         142.9079  138.8269  160.0078 C.ar    1  UNL1        0.0513
      5 C         144.1326  139.2286  160.7751 C.ar    1  UNL1        0.0147
      6 C         144.0443  139.4784  162.2516 C.ar    1  UNL1        0.0025
      7 C         142.7312  139.3266  162.9606 C.ar    1  UNL1        0.0138
      8 C         142.6428  139.5765  164.4370 C.ar    1  UNL1        0.0843
      9 C         143.0811  138.5173  165.4045 C.ar    1  UNL1        0.1179
     10 N         142.9927  138.7671  166.8808 N.ar    1  UNL1       -0.2248
     11 C         142.4660  140.0762  167.3899 C.ar    1  UNL1        0.1633
     12 C         142.0277  141.1353  166.4224 C.ar    1  UNL1        0.1797
     13 N         141.4705  142.5129  166.6269 N.ar    1  UNL1       -0.2222
     14 C         141.2146  143.1144  165.2769 C.ar    1  UNL1        0.1196
     15 C         141.6136  142.1087  164.2380 C.ar    1  UNL1        0.1023
     16 N         142.1161  140.8855  164.9460 N.ar    1  UNL1       -0.2851
     17 N         142.3777  140.3259  168.8663 N.pl3   1  UNL1       -0.3173
     18 H         143.1960  140.4952  169.3868 H       1  UNL1        0.1482
     19 C         141.0425  140.3178  169.5497 C.3     1  UNL1        0.0706
     20 C         139.5920  140.6996  169.5718 C.3     1  UNL1        0.0212
     21 C         140.1803  139.9220  170.7116 C.3     1  UNL1        0.0212
     22 N         142.9963  138.5771  158.5315 N.am    1  UNL1       -0.2680
     23 C         142.9323  137.1747  158.0029 C.2     1  UNL1        0.3092
     24 O         142.7799  136.0222  158.9508 O.2     1  UNL1       -0.2521
     25 N         143.0206  136.9248  156.5266 N.am    1  UNL1       -0.2533
     26 H         143.0963  139.3335  157.9093 H       1  UNL1        0.1564
     27 H         143.1206  137.6813  155.9044 H       1  UNL1        0.1578
     28 C         142.9566  135.5225  155.9980 C.ar    1  UNL1        0.1380
     29 C         143.9222  134.4178  156.3099 C.ar    1  UNL1        0.0509
     30 C         143.4782  133.1912  155.5695 C.ar    1  UNL1        0.0810
     31 N         142.2382  133.5378  154.7999 N.ar    1  UNL1       -0.1683
     32 N         141.9158  134.9786  155.0648 N.ar    1  UNL1       -0.2162
     33 C         140.7563  135.7416  154.4962 C.ar    1  UNL1        0.0842
     34 C         140.5051  135.7324  153.0174 C.ar    1  UNL1        0.0192
     35 C         139.3456  136.4953  152.4488 C.ar    1  UNL1        0.0015
     36 C         138.4371  137.2676  153.3590 C.ar    1  UNL1        0.0001
     37 C         138.6882  137.2768  154.8378 C.ar    1  UNL1        0.0015
     38 C         139.8478  136.5138  155.4064 C.ar    1  UNL1        0.0192
     39 C         144.1553  131.8529  155.5942 C.3     1  UNL1        0.0372
     40 C         144.9592  132.2818  156.7858 C.3     1  UNL1        0.0060
     41 C         143.3513  131.4242  154.4026 C.3     1  UNL1        0.0060
     42 C         144.8324  130.5147  155.6189 C.3     1  UNL1        0.0060
@<TRIPOS>BOND
     1     1     2    1
     2     2     3   ar
     3     3     4   ar
     4     4    22    1
     5    22    23   am
     6    23    24    2
     7    23    25   am
     8    25    28    1
     9    28    29   ar
    10    29    30   ar
    11    30    39    1
    12    39    40    1
    13    39    41    1
    14    39    42    1
    15    30    31   ar
    16    31    32   ar
    17    32    33    1
    18    33    34   ar
    19    34    35   ar
    20    35    36   ar
    21    36    37   ar
    22    37    38   ar
    23     4     5   ar
    24     5     6   ar
    25     6     7   ar
    26     7     8    1
    27     8     9   ar
    28     9    10   ar
    29    10    11   ar
    30    11    17    1
    31    17    19    1
    32    19    20    1
    33    20    21    1
    34    11    12   ar
    35    12    13   ar
    36    13    14   ar
    37    14    15   ar
    38    15    16   ar
    39     7     2   ar
    40    16     8   ar
    41    32    28   ar
    42    38    33   ar
    43    21    19    1
    44    16    12   ar
    45    22    26    1
    46    25    27    1
    47    17    18    1
@<TRIPOS>MOLECULE
*****
 42 47 0 0 0
SMALL
GASTEIGER

@<TRIPOS>ATOM
      1 C         141.3080  142.5675  162.6687 C.3     1  UNL1        0.0311
      2 C         142.3542  141.5659  162.2785 C.ar    1  UNL1       -0.0192
      3 C         142.5115  141.1670  160.8411 C.ar    1  UNL1        0.0105
      4 C         143.5577  140.1653  160.4509 C.ar    1  UNL1        0.0513
      5 C         144.4465  139.5626  161.4982 C.ar    1  UNL1        0.0147
      6 C         144.2891  139.9614  162.9357 C.ar    1  UNL1        0.0025
      7 C         143.2430  140.9631  163.3258 C.ar    1  UNL1        0.0138
      8 C         143.0856  141.3620  164.7632 C.ar    1  UNL1        0.0843
      9 C         143.9601  142.4332  165.3444 C.ar    1  UNL1        0.1179
     10 N         143.8027  142.8321  166.7817 N.ar    1  UNL1       -0.2248
     11 C         142.7707  142.1598  167.6380 C.ar    1  UNL1        0.1633
     12 C         141.8962  141.0887  167.0568 C.ar    1  UNL1        0.1797
     13 N         140.8007  140.2547  167.6520 N.ar    1  UNL1       -0.2222
     14 C         140.2810  139.3404  166.5825 C.ar    1  UNL1        0.1196
     15 C         141.0554  139.6092  165.3263 C.ar    1  UNL1        0.1023
     16 N         142.0536  140.6898  165.6194 N.ar    1  UNL1       -0.2851
     17 N         142.6134  142.5588  169.0754 N.pl3   1  UNL1       -0.3173
     18 H         143.3865  142.5223  169.6839 H       1  UNL1        0.1482
     19 C         141.2782  143.0135  169.5857 C.3     1  UNL1        0.0706
     20 C         139.9062  142.6926  170.1002 C.3     1  UNL1        0.0212
     21 C         140.3375  144.1219  169.9551 C.3     1  UNL1        0.0212
     22 N         143.7151  139.7665  159.0136 N.am    1  UNL1       -0.2680
     23 C         143.0770  138.5053  158.5110 C.2     1  UNL1        0.3092
     24 O         142.2816  137.6432  159.4458 O.2     1  UNL1       -0.2521
     25 N         143.2344  138.1065  157.0737 N.am    1  UNL1       -0.2533
     26 H         144.2372  140.3323  158.4001 H       1  UNL1        0.1564
     27 H         143.7565  138.6724  156.4601 H       1  UNL1        0.1578
     28 C         142.5963  136.8454  156.5710 C.ar    1  UNL1        0.1380
     29 C         143.1393  135.4568  156.7347 C.ar    1  UNL1        0.0509
     30 C         142.1819  134.5047  156.0814 C.ar    1  UNL1        0.0810
     31 N         141.0472  135.3050  155.5139 N.ar    1  UNL1       -0.1683
     32 N         141.3033  136.7516  155.8165 N.ar    1  UNL1       -0.2162
     33 C         140.4213  137.9023  155.4321 C.ar    1  UNL1        0.0842
     34 C         139.7360  138.7096  156.4945 C.ar    1  UNL1        0.0192
     35 C         138.8540  139.8603  156.1101 C.ar    1  UNL1        0.0015
     36 C         138.6573  140.2039  154.6632 C.ar    1  UNL1        0.0001
     37 C         139.3427  139.3967  153.6008 C.ar    1  UNL1        0.0015
     38 C         140.2247  138.2460  153.9852 C.ar    1  UNL1        0.0192
     39 C         142.3327  133.0140  156.0083 C.3     1  UNL1        0.0372
     40 C         143.2655  133.0509  157.1824 C.3     1  UNL1        0.0060
     41 C         141.3998  132.9773  154.8342 C.3     1  UNL1        0.0060
     42 C         142.4834  131.5235  155.9352 C.3     1  UNL1        0.0060
@<TRIPOS>BOND
     1     1     2    1
     2     2     3   ar
     3     3     4   ar
     4     4    22    1
     5    22    23   am
     6    23    24    2
     7    23    25   am
     8    25    28    1
     9    28    29   ar
    10    29    30   ar
    11    30    39    1
    12    39    40    1
    13    39    41    1
    14    39    42    1
    15    30    31   ar
    16    31    32   ar
    17    32    33    1
    18    33    34   ar
    19    34    35   ar
    20    35    36   ar
    21    36    37   ar
    22    37    38   ar
    23     4     5   ar
    24     5     6   ar
    25     6     7   ar
    26     7     8    1
    27     8     9   ar
    28     9    10   ar
    29    10    11   ar
    30    11    17    1
    31    17    19    1
    32    19    20    1
    33    20    21    1
    34    11    12   ar
    35    12    13   ar
    36    13    14   ar
    37    14    15   ar
    38    15    16   ar
    39     7     2   ar
    40    16     8   ar
    41    32    28   ar
    42    38    33   ar
    43    21    19    1
    44    16    12   ar
    45    22    26    1
    46    25    27    1
    47    17    18    1
@<TRIPOS>MOLECULE
*****
 42 47 0 0 0
SMALL
GASTEIGER

@<TRIPOS>ATOM
      1 C         142.4351  142.1497  161.3797 C.3     1  UNL1        0.0311
      2 C         140.9436  142.0289  161.2754 C.ar    1  UNL1       -0.0192
      3 C         140.2694  142.1884  159.9451 C.ar    1  UNL1        0.0105
      4 C         138.7778  142.0676  159.8409 C.ar    1  UNL1        0.0513
      5 C         137.9606  141.7873  161.0671 C.ar    1  UNL1        0.0147
      6 C         138.6349  141.6278  162.3975 C.ar    1  UNL1        0.0025
      7 C         140.1264  141.7486  162.5017 C.ar    1  UNL1        0.0138
      8 C         140.8007  141.5891  163.8320 C.ar    1  UNL1        0.0843
      9 C         140.9941  142.7806  164.7225 C.ar    1  UNL1        0.1179
     10 N         141.6684  142.6212  166.0528 N.ar    1  UNL1       -0.2248
     11 C         142.1494  141.2702  166.4928 C.ar    1  UNL1        0.1633
     12 C         141.9559  140.0787  165.6023 C.ar    1  UNL1        0.1797
     13 N         142.3222  138.6333  165.7661 N.ar    1  UNL1       -0.2222
     14 C         141.8742  137.8995  164.5370 C.ar    1  UNL1        0.1196
     15 C         141.2311  138.8913  163.6135 C.ar    1  UNL1        0.1023
     16 N         141.2816  140.2381  164.2720 N.ar    1  UNL1       -0.2851
     17 N         142.8237  141.1108  167.8232 N.pl3   1  UNL1       -0.3173
     18 H         143.6674  141.5835  168.0072 H       1  UNL1        0.1482
     19 C         142.2125  140.2311  168.8732 C.3     1  UNL1        0.0706
     20 C         141.0156  139.7891  169.6621 C.3     1  UNL1        0.0212
     21 C         142.3508  139.1493  169.9031 C.3     1  UNL1        0.0212
     22 N         138.1036  142.2271  158.5106 N.am    1  UNL1       -0.2680
     23 C         137.9526  141.0449  157.5996 C.2     1  UNL1        0.3092
     24 O         138.4761  139.7033  158.0192 O.2     1  UNL1       -0.2521
     25 N         137.2784  141.2044  156.2693 N.am    1  UNL1       -0.2533
     26 H         137.7600  143.1077  158.2353 H       1  UNL1        0.1564
     27 H         136.9349  142.0850  155.9940 H       1  UNL1        0.1578
     28 C         137.1275  140.0222  155.3584 C.ar    1  UNL1        0.1380
     29 C         138.2442  139.2728  154.6943 C.ar    1  UNL1        0.0509
     30 C         137.6403  138.1694  153.8771 C.ar    1  UNL1        0.0810
     31 N         136.1503  138.2369  154.0362 N.ar    1  UNL1       -0.1683
     32 N         135.8334  139.3820  154.9517 N.ar    1  UNL1       -0.2162
     33 C         134.4629  139.8115  155.3846 C.ar    1  UNL1        0.0842
     34 C         133.6971  138.9874  156.3767 C.ar    1  UNL1        0.0192
     35 C         132.3266  139.4169  156.8096 C.ar    1  UNL1        0.0015
     36 C         131.7219  140.6706  156.2503 C.ar    1  UNL1        0.0001
     37 C         132.4878  141.4947  155.2581 C.ar    1  UNL1        0.0015
     38 C         133.8582  141.0652  154.8253 C.ar    1  UNL1        0.0192
     39 C         138.3941  137.1732  153.0466 C.3     1  UNL1        0.0372
     40 C         139.6259  137.4229  153.8652 C.3     1  UNL1        0.0060
     41 C         137.1621  136.9237  152.2279 C.3     1  UNL1        0.0060
     42 C         139.1477  136.1772  152.2160 C.3     1  UNL1        0.0060
@<TRIPOS>BOND
     1     1     2    1
     2     2     3   ar
     3     3     4   ar
     4     4    22    1
     5    22    23   am
     6    23    24    2
     7    23    25   am
     8    25    28    1
     9    28    29   ar
    10    29    30   ar
    11    30    39    1
    12    39    40    1
    13    39    41    1
    14    39    42    1
    15    30    31   ar
    16    31    32   ar
    17    32    33    1
    18    33    34   ar
    19    34    35   ar
    20    35    36   ar
    21    36    37   ar
    22    37    38   ar
    23     4     5   ar
    24     5     6   ar
    25     6     7   ar
    26     7     8    1
    27     8     9   ar
    28     9    10   ar
    29    10    11   ar
    30    11    17    1
    31    17    19    1
    32    19    20    1
    33    20    21    1
    34    11    12   ar
    35    12    13   ar
    36    13    14   ar
    37    14    15   ar
    38    15    16   ar
    39     7     2   ar
    40    16     8   ar
    41    32    28   ar
    42    38    33   ar
    43    21    19    1
    44    16    12   ar
    45    22    26    1
    46    25    27    1
    47    17    18    1
