@<TRIPOS>MOLECULE
*****
 41 44 0 0 0
SMALL
GASTEIGER

@<TRIPOS>ATOM
      1 C         140.6570  139.9647  165.6034 C.3     1  UNL1        0.2175
      2 C         140.1471  140.0886  164.1982 C.3     1  UNL1        0.0803
      3 C         139.3753  141.3067  163.7851 C.ar    1  UNL1        0.0494
      4 C         138.8653  141.4307  162.3799 C.ar    1  UNL1        0.1357
      5 O         139.1273  140.3366  161.3877 O.3     1  UNL1       -0.5056
      6 C         138.0935  142.6487  161.9668 C.ar    1  UNL1        0.0731
      7 C         137.8316  143.7428  162.9590 C.ar    1  UNL1        0.1397
      8 O         137.0598  144.9609  162.5458 O.3     1  UNL1       -0.5053
      9 C         138.3415  143.6189  164.3642 C.ar    1  UNL1        0.0734
     10 C         139.1134  142.4008  164.7773 C.ar    1  UNL1        0.1410
     11 O         139.6232  142.2768  166.1825 O.3     1  UNL1       -0.4711
     12 C         140.3950  141.0588  166.5955 C.3     1  UNL1        0.2283
     13 H         139.6094  139.5757  161.6458 H       1  UNL1        0.2922
     14 H         136.7413  145.0383  161.6681 H       1  UNL1        0.2922
     15 C         140.9050  140.9348  168.0008 C.ar    1  UNL1        0.0270
     16 C         140.0981  140.1990  169.0292 C.ar    1  UNL1        0.0393
     17 C         140.6080  140.0750  170.4344 C.ar    1  UNL1        0.1704
     18 O         139.8012  139.3393  171.4628 O.3     1  UNL1       -0.5028
     19 C         141.9248  140.6868  170.8112 C.ar    1  UNL1        0.2018
     20 O         142.4346  140.5628  172.2164 O.3     1  UNL1       -0.5009
     21 C         142.7316  141.4226  169.7828 C.ar    1  UNL1        0.1704
     22 O         144.0483  142.0344  170.1596 O.3     1  UNL1       -0.5028
     23 C         142.2217  141.5466  168.3776 C.ar    1  UNL1        0.0393
     24 H         138.9787  138.9571  171.2274 H       1  UNL1        0.2923
     25 H         141.9306  140.1032  172.8588 H       1  UNL1        0.2924
     26 H         144.3668  141.9569  171.0374 H       1  UNL1        0.2923
     27 O         141.4288  138.7466  166.0165 O.3     1  UNL1       -0.4447
     28 O         143.7512  137.8160  166.7169 O.2     1  UNL1       -0.2449
     29 C         142.9185  138.7090  165.8455 C.2     1  UNL1        0.3414
     30 C         143.5756  139.5644  164.8032 C.ar    1  UNL1        0.0819
     31 C         144.0236  140.9541  165.1467 C.ar    1  UNL1        0.0464
     32 C         144.6807  141.8095  164.1043 C.ar    1  UNL1        0.1708
     33 O         145.1286  143.1993  164.4478 O.3     1  UNL1       -0.5028
     34 C         144.8899  141.2752  162.7184 C.ar    1  UNL1        0.2019
     35 O         145.5470  142.1306  161.6761 O.3     1  UNL1       -0.5009
     36 C         144.4419  139.8854  162.3749 C.ar    1  UNL1        0.1708
     37 O         144.6511  139.3511  160.9890 O.3     1  UNL1       -0.5028
     38 C         143.7849  139.0301  163.4172 C.ar    1  UNL1        0.0464
     39 H         144.9979  143.5330  165.3135 H       1  UNL1        0.2923
     40 H         145.8268  142.9987  161.8907 H       1  UNL1        0.2924
     41 H         145.0616  139.8854  160.3379 H       1  UNL1        0.2923
@<TRIPOS>BOND
     1    28    29    2
     2    29    27    1
     3    27     1    1
     4     1     2    1
     5     2     3    1
     6     3     4   ar
     7     4     5    1
     8     4     6   ar
     9     6     7   ar
    10     7     8    1
    11     7     9   ar
    12     9    10   ar
    13    10    11    1
    14    11    12    1
    15    12    15    1
    16    15    16   ar
    17    16    17   ar
    18    17    18    1
    19    17    19   ar
    20    19    20    1
    21    19    21   ar
    22    21    22    1
    23    21    23   ar
    24    29    30    1
    25    30    31   ar
    26    31    32   ar
    27    32    33    1
    28    32    34   ar
    29    34    35    1
    30    34    36   ar
    31    36    37    1
    32    36    38   ar
    33    12     1    1
    34    23    15   ar
    35    38    30   ar
    36    10     3   ar
    37     5    13    1
    38     8    14    1
    39    18    24    1
    40    20    25    1
    41    22    26    1
    42    33    39    1
    43    35    40    1
    44    37    41    1
@<TRIPOS>MOLECULE
*****
 41 44 0 0 0
SMALL
GASTEIGER

@<TRIPOS>ATOM
      1 C         140.6585  139.9375  165.6138 C.3     1  UNL1        0.2175
      2 C         140.1505  140.0569  164.2075 C.3     1  UNL1        0.0803
      3 C         139.3799  141.2739  163.7893 C.ar    1  UNL1        0.0494
      4 C         138.8719  141.3934  162.3829 C.ar    1  UNL1        0.1357
      5 O         139.1344  140.2957  161.3949 O.3     1  UNL1       -0.5056
      6 C         138.1014  142.6104  161.9647 C.ar    1  UNL1        0.0731
      7 C         137.8388  143.7081  162.9527 C.ar    1  UNL1        0.1397
      8 O         137.0683  144.9252  162.5343 O.3     1  UNL1       -0.5053
      9 C         138.3468  143.5887  164.3589 C.ar    1  UNL1        0.0734
     10 C         139.1174  142.3716  164.7773 C.ar    1  UNL1        0.1410
     11 O         139.6254  142.2523  166.1835 O.3     1  UNL1       -0.4711
     12 C         140.3960  141.0352  166.6018 C.3     1  UNL1        0.2283
     13 H         139.6157  139.5354  161.6562 H       1  UNL1        0.2922
     14 H         136.7509  144.9998  161.6559 H       1  UNL1        0.2922
     15 C         140.9040  140.9158  168.0081 C.ar    1  UNL1        0.0270
     16 C         142.2218  141.5259  168.3838 C.ar    1  UNL1        0.0393
     17 C         142.7299  141.4065  169.7901 C.ar    1  UNL1        0.1704
     18 O         144.0477  142.0167  170.1658 O.3     1  UNL1       -0.5028
     19 C         141.9201  140.6770  170.8207 C.ar    1  UNL1        0.2018
     20 O         142.4282  140.5576  172.2269 O.3     1  UNL1       -0.5009
     21 C         140.6023  140.0668  170.4450 C.ar    1  UNL1        0.1704
     22 O         139.7926  139.3373  171.4756 O.3     1  UNL1       -0.5028
     23 C         140.0943  140.1862  169.0387 C.ar    1  UNL1        0.0393
     24 H         144.5535  142.4724  169.5220 H       1  UNL1        0.2923
     25 H         143.2514  140.9387  172.4616 H       1  UNL1        0.2924
     26 H         140.1100  139.2627  172.3540 H       1  UNL1        0.2923
     27 O         141.4291  138.7204  166.0321 O.3     1  UNL1       -0.4447
     28 O         143.7489  137.7752  166.7212 O.2     1  UNL1       -0.2449
     29 C         142.9186  138.6798  165.8597 C.2     1  UNL1        0.3414
     30 C         143.5777  139.5439  164.8258 C.ar    1  UNL1        0.0819
     31 C         144.0302  140.9286  165.1834 C.ar    1  UNL1        0.0464
     32 C         144.6893  141.7926  164.1494 C.ar    1  UNL1        0.1708
     33 O         145.1418  143.1773  164.5070 O.3     1  UNL1       -0.5028
     34 C         144.8960  141.2719  162.7580 C.ar    1  UNL1        0.2019
     35 O         145.5551  142.1360  161.7241 O.3     1  UNL1       -0.5009
     36 C         144.4435  139.8872  162.4004 C.ar    1  UNL1        0.1708
     37 O         144.6501  139.3666  161.0090 O.3     1  UNL1       -0.5028
     38 C         143.7843  139.0232  163.4343 C.ar    1  UNL1        0.0464
     39 H         145.0128  143.5026  165.3762 H       1  UNL1        0.2923
     40 H         145.8378  143.0009  161.9475 H       1  UNL1        0.2924
     41 H         145.0619  139.9063  160.3631 H       1  UNL1        0.2923
@<TRIPOS>BOND
     1    28    29    2
     2    29    27    1
     3    27     1    1
     4     1     2    1
     5     2     3    1
     6     3     4   ar
     7     4     5    1
     8     4     6   ar
     9     6     7   ar
    10     7     8    1
    11     7     9   ar
    12     9    10   ar
    13    10    11    1
    14    11    12    1
    15    12    15    1
    16    15    16   ar
    17    16    17   ar
    18    17    18    1
    19    17    19   ar
    20    19    20    1
    21    19    21   ar
    22    21    22    1
    23    21    23   ar
    24    29    30    1
    25    30    31   ar
    26    31    32   ar
    27    32    33    1
    28    32    34   ar
    29    34    35    1
    30    34    36   ar
    31    36    37    1
    32    36    38   ar
    33    12     1    1
    34    23    15   ar
    35    38    30   ar
    36    10     3   ar
    37     5    13    1
    38     8    14    1
    39    18    24    1
    40    20    25    1
    41    22    26    1
    42    33    39    1
    43    35    40    1
    44    37    41    1
@<TRIPOS>MOLECULE
*****
 41 44 0 0 0
SMALL
GASTEIGER

@<TRIPOS>ATOM
      1 C         140.6476  139.9444  165.6079 C.3     1  UNL1        0.2175
      2 C         140.1360  140.0660  164.2031 C.3     1  UNL1        0.0803
      3 C         139.3709  141.2872  163.7867 C.ar    1  UNL1        0.0494
      4 C         138.8593  141.4089  162.3818 C.ar    1  UNL1        0.1357
      5 O         139.1129  140.3094  161.3935 O.3     1  UNL1       -0.5056
      6 C         138.0942  142.6300  161.9654 C.ar    1  UNL1        0.0731
      7 C         137.8407  143.7294  162.9538 C.ar    1  UNL1        0.1397
      8 O         137.0755  144.9506  162.5374 O.3     1  UNL1       -0.5053
      9 C         138.3522  143.6078  164.3586 C.ar    1  UNL1        0.0734
     10 C         139.1174  142.3866  164.7751 C.ar    1  UNL1        0.1410
     11 O         139.6290  142.2650  166.1799 O.3     1  UNL1       -0.4711
     12 C         140.3941  141.0439  166.5963 C.3     1  UNL1        0.2283
     13 H         139.5908  139.5466  161.6536 H       1  UNL1        0.2922
     14 H         136.7560  145.0266  161.6598 H       1  UNL1        0.2922
     15 C         140.9057  140.9222  168.0011 C.ar    1  UNL1        0.0270
     16 C         142.2173  141.5445  168.3781 C.ar    1  UNL1        0.0393
     17 C         142.7290  141.4229  169.7829 C.ar    1  UNL1        0.1704
     18 O         144.0406  142.0453  170.1599 O.3     1  UNL1       -0.5028
     19 C         141.9289  140.6788  170.8107 C.ar    1  UNL1        0.2018
     20 O         142.4405  140.5571  172.2155 O.3     1  UNL1       -0.5009
     21 C         140.6172  140.0564  170.4337 C.ar    1  UNL1        0.1704
     22 O         139.8172  139.3123  171.4614 O.3     1  UNL1       -0.5028
     23 C         140.1056  140.1781  169.0288 C.ar    1  UNL1        0.0393
     24 H         144.5404  142.5101  169.5179 H       1  UNL1        0.2923
     25 H         143.2599  140.9459  172.4510 H       1  UNL1        0.2924
     26 H         140.1368  139.2363  172.3389 H       1  UNL1        0.2923
     27 O         141.4127  138.7232  166.0244 O.3     1  UNL1       -0.4447
     28 O         143.7278  137.7767  166.7277 O.2     1  UNL1       -0.2449
     29 C         142.9029  138.6791  165.8586 C.2     1  UNL1        0.3414
     30 C         143.5682  139.5374  164.8239 C.ar    1  UNL1        0.0819
     31 C         143.7738  139.0129  163.4337 C.ar    1  UNL1        0.0464
     32 C         144.4391  139.8713  162.3990 C.ar    1  UNL1        0.1708
     33 O         144.6448  139.3467  161.0088 O.3     1  UNL1       -0.5028
     34 C         144.8987  141.2541  162.7544 C.ar    1  UNL1        0.2019
     35 O         145.5640  142.1124  161.7197 O.3     1  UNL1       -0.5009
     36 C         144.6931  141.7787  164.1446 C.ar    1  UNL1        0.1708
     37 O         145.1527  143.1616  164.5000 O.3     1  UNL1       -0.5028
     38 C         144.0278  140.9204  165.1793 C.ar    1  UNL1        0.0464
     39 H         144.3577  138.4828  160.7868 H       1  UNL1        0.2923
     40 H         145.6924  141.7847  160.8513 H       1  UNL1        0.2924
     41 H         145.5683  143.6977  163.8536 H       1  UNL1        0.2923
@<TRIPOS>BOND
     1    28    29    2
     2    29    27    1
     3    27     1    1
     4     1     2    1
     5     2     3    1
     6     3     4   ar
     7     4     5    1
     8     4     6   ar
     9     6     7   ar
    10     7     8    1
    11     7     9   ar
    12     9    10   ar
    13    10    11    1
    14    11    12    1
    15    12    15    1
    16    15    16   ar
    17    16    17   ar
    18    17    18    1
    19    17    19   ar
    20    19    20    1
    21    19    21   ar
    22    21    22    1
    23    21    23   ar
    24    29    30    1
    25    30    31   ar
    26    31    32   ar
    27    32    33    1
    28    32    34   ar
    29    34    35    1
    30    34    36   ar
    31    36    37    1
    32    36    38   ar
    33    12     1    1
    34    23    15   ar
    35    38    30   ar
    36    10     3   ar
    37     5    13    1
    38     8    14    1
    39    18    24    1
    40    20    25    1
    41    22    26    1
    42    33    39    1
    43    35    40    1
    44    37    41    1
@<TRIPOS>MOLECULE
*****
 41 44 0 0 0
SMALL
GASTEIGER

@<TRIPOS>ATOM
      1 C         141.9822  141.2625  165.7927 C.3     1  UNL1        0.2175
      2 C         142.8008  141.7891  166.9339 C.3     1  UNL1        0.0803
      3 C         142.1947  141.9047  168.3010 C.ar    1  UNL1        0.0494
      4 C         143.0134  142.4313  169.4424 C.ar    1  UNL1        0.1357
      5 O         144.4382  142.8423  169.2164 O.3     1  UNL1       -0.5056
      6 C         142.4073  142.5470  170.8095 C.ar    1  UNL1        0.0731
      7 C         140.9824  142.1360  171.0355 C.ar    1  UNL1        0.1397
      8 O         140.3763  142.2517  172.4027 O.3     1  UNL1       -0.5053
      9 C         140.1638  141.6094  169.8942 C.ar    1  UNL1        0.0734
     10 C         140.7699  141.4938  168.5270 C.ar    1  UNL1        0.1410
     11 O         139.9512  140.9672  167.3858 O.3     1  UNL1       -0.4711
     12 C         140.5574  140.8515  166.0186 C.3     1  UNL1        0.2283
     13 H         144.8168  142.7700  168.3624 H       1  UNL1        0.2922
     14 H         140.8877  142.5806  173.1156 H       1  UNL1        0.2922
     15 C         139.7387  140.3249  164.8773 C.ar    1  UNL1        0.0270
     16 C         140.1283  139.0425  164.2038 C.ar    1  UNL1        0.0393
     17 C         139.3097  138.5159  163.0625 C.ar    1  UNL1        0.1704
     18 O         139.6994  137.2335  162.3890 O.3     1  UNL1       -0.5028
     19 C         138.1014  139.2717  162.5947 C.ar    1  UNL1        0.2018
     20 O         137.2828  138.7451  161.4535 O.3     1  UNL1       -0.5009
     21 C         137.7117  140.5541  163.2682 C.ar    1  UNL1        0.1704
     22 O         136.5035  141.3099  162.8005 O.3     1  UNL1       -0.5028
     23 C         138.5304  141.0807  164.4095 C.ar    1  UNL1        0.0393
     24 H         140.4542  136.7614  162.6812 H       1  UNL1        0.2923
     25 H         137.5262  137.9440  161.0328 H       1  UNL1        0.2924
     26 H         135.9921  140.9809  162.0875 H       1  UNL1        0.2923
     27 O         142.5883  141.1468  164.4254 O.3     1  UNL1       -0.4447
     28 O         144.6096  142.5646  163.6163 O.2     1  UNL1       -0.2449
     29 C         143.1277  142.3664  163.7385 C.2     1  UNL1        0.3414
     30 C         142.1853  143.3876  163.1739 C.ar    1  UNL1        0.0819
     31 C         142.4089  143.9329  161.7945 C.ar    1  UNL1        0.0464
     32 C         141.4665  144.9543  161.2299 C.ar    1  UNL1        0.1708
     33 O         141.6901  145.4996  159.8506 O.3     1  UNL1       -0.5028
     34 C         140.3005  145.4302  162.0446 C.ar    1  UNL1        0.2019
     35 O         139.3581  146.4515  161.4800 O.3     1  UNL1       -0.5009
     36 C         140.0769  144.8849  163.4240 C.ar    1  UNL1        0.1708
     37 O         138.9108  145.3609  164.2387 O.3     1  UNL1       -0.5028
     38 C         141.0192  143.8637  163.9886 C.ar    1  UNL1        0.0464
     39 H         142.4185  145.2022  159.3416 H       1  UNL1        0.2923
     40 H         139.4978  146.7922  160.6184 H       1  UNL1        0.2924
     41 H         138.3221  145.9989  163.8860 H       1  UNL1        0.2923
@<TRIPOS>BOND
     1    28    29    2
     2    29    27    1
     3    27     1    1
     4     1     2    1
     5     2     3    1
     6     3     4   ar
     7     4     5    1
     8     4     6   ar
     9     6     7   ar
    10     7     8    1
    11     7     9   ar
    12     9    10   ar
    13    10    11    1
    14    11    12    1
    15    12    15    1
    16    15    16   ar
    17    16    17   ar
    18    17    18    1
    19    17    19   ar
    20    19    20    1
    21    19    21   ar
    22    21    22    1
    23    21    23   ar
    24    29    30    1
    25    30    31   ar
    26    31    32   ar
    27    32    33    1
    28    32    34   ar
    29    34    35    1
    30    34    36   ar
    31    36    37    1
    32    36    38   ar
    33    12     1    1
    34    23    15   ar
    35    38    30   ar
    36    10     3   ar
    37     5    13    1
    38     8    14    1
    39    18    24    1
    40    20    25    1
    41    22    26    1
    42    33    39    1
    43    35    40    1
    44    37    41    1
@<TRIPOS>MOLECULE
*****
 41 44 0 0 0
SMALL
GASTEIGER

@<TRIPOS>ATOM
      1 C         141.9575  141.3093  165.7780 C.3     1  UNL1        0.2175
      2 C         142.7775  141.8369  166.9178 C.3     1  UNL1        0.0803
      3 C         142.1779  141.9390  168.2889 C.ar    1  UNL1        0.0494
      4 C         142.9980  142.4667  169.4287 C.ar    1  UNL1        0.1357
      5 O         144.4176  142.8922  169.1974 O.3     1  UNL1       -0.5056
      6 C         142.3984  142.5688  170.7998 C.ar    1  UNL1        0.0731
      7 C         140.9787  142.1432  171.0312 C.ar    1  UNL1        0.1397
      8 O         140.3791  142.2454  172.4024 O.3     1  UNL1       -0.5053
      9 C         140.1587  141.6156  169.8915 C.ar    1  UNL1        0.0734
     10 C         140.7583  141.5135  168.5202 C.ar    1  UNL1        0.1410
     11 O         139.9382  140.9859  167.3805 O.3     1  UNL1       -0.4711
     12 C         140.5378  140.8838  166.0094 C.3     1  UNL1        0.2283
     13 H         144.7922  142.8284  168.3409 H       1  UNL1        0.2922
     14 H         140.8914  142.5750  173.1144 H       1  UNL1        0.2922
     15 C         139.7178  140.3561  164.8695 C.ar    1  UNL1        0.0270
     16 C         138.5099  141.1125  164.4014 C.ar    1  UNL1        0.0393
     17 C         137.6899  140.5849  163.2616 C.ar    1  UNL1        0.1704
     18 O         136.4821  141.3412  162.7935 O.3     1  UNL1       -0.5028
     19 C         138.0777  139.3009  162.5899 C.ar    1  UNL1        0.2018
     20 O         137.2576  138.7733  161.4501 O.3     1  UNL1       -0.5009
     21 C         139.2855  138.5446  163.0580 C.ar    1  UNL1        0.1704
     22 O         139.6732  137.2607  162.3864 O.3     1  UNL1       -0.5028
     23 C         140.1055  139.0722  164.1979 C.ar    1  UNL1        0.0393
     24 H         136.2399  142.1432  163.2131 H       1  UNL1        0.2923
     25 H         136.5031  139.2458  161.1577 H       1  UNL1        0.2924
     26 H         139.1610  136.9311  161.6744 H       1  UNL1        0.2923
     27 O         142.5571  141.2072  164.4068 O.3     1  UNL1       -0.4447
     28 O         144.5656  142.6396  163.5919 O.2     1  UNL1       -0.2449
     29 C         143.0856  142.4348  163.7261 C.2     1  UNL1        0.3414
     30 C         142.1344  143.4577  163.1795 C.ar    1  UNL1        0.0819
     31 C         140.9912  143.9437  164.0203 C.ar    1  UNL1        0.0464
     32 C         140.0399  144.9666  163.4737 C.ar    1  UNL1        0.1708
     33 O         138.8967  145.4526  164.3145 O.3     1  UNL1       -0.5028
     34 C         140.2319  145.5036  162.0863 C.ar    1  UNL1        0.2019
     35 O         139.2806  146.5264  161.5397 O.3     1  UNL1       -0.5009
     36 C         141.3750  145.0176  161.2455 C.ar    1  UNL1        0.1708
     37 O         141.5670  145.5545  159.8581 O.3     1  UNL1       -0.5028
     38 C         142.3263  143.9947  161.7921 C.ar    1  UNL1        0.0464
     39 H         138.7769  145.1172  165.1811 H       1  UNL1        0.2923
     40 H         138.5665  146.8300  162.0650 H       1  UNL1        0.2924
     41 H         140.9728  146.1935  159.5167 H       1  UNL1        0.2923
@<TRIPOS>BOND
     1    28    29    2
     2    29    27    1
     3    27     1    1
     4     1     2    1
     5     2     3    1
     6     3     4   ar
     7     4     5    1
     8     4     6   ar
     9     6     7   ar
    10     7     8    1
    11     7     9   ar
    12     9    10   ar
    13    10    11    1
    14    11    12    1
    15    12    15    1
    16    15    16   ar
    17    16    17   ar
    18    17    18    1
    19    17    19   ar
    20    19    20    1
    21    19    21   ar
    22    21    22    1
    23    21    23   ar
    24    29    30    1
    25    30    31   ar
    26    31    32   ar
    27    32    33    1
    28    32    34   ar
    29    34    35    1
    30    34    36   ar
    31    36    37    1
    32    36    38   ar
    33    12     1    1
    34    23    15   ar
    35    38    30   ar
    36    10     3   ar
    37     5    13    1
    38     8    14    1
    39    18    24    1
    40    20    25    1
    41    22    26    1
    42    33    39    1
    43    35    40    1
    44    37    41    1
@<TRIPOS>MOLECULE
*****
 41 44 0 0 0
SMALL
GASTEIGER

@<TRIPOS>ATOM
      1 C         142.4750  141.9264  165.5615 C.3     1  UNL1        0.2175
      2 C         142.6874  142.3668  164.1435 C.3     1  UNL1        0.0803
      3 C         141.7689  143.3801  163.5274 C.ar    1  UNL1        0.0494
      4 C         141.9812  143.8206  162.1093 C.ar    1  UNL1        0.1357
      5 O         143.1120  143.2478  161.3074 O.3     1  UNL1       -0.5056
      6 C         141.0627  144.8339  161.4932 C.ar    1  UNL1        0.0731
      7 C         139.9319  145.4067  162.2952 C.ar    1  UNL1        0.1397
      8 O         139.0134  146.4200  161.6790 O.3     1  UNL1       -0.5053
      9 C         139.7196  144.9663  163.7132 C.ar    1  UNL1        0.0734
     10 C         140.6381  143.9529  164.3294 C.ar    1  UNL1        0.1410
     11 O         140.4257  143.5125  165.7474 O.3     1  UNL1       -0.4711
     12 C         141.3442  142.4992  166.3635 C.3     1  UNL1        0.2283
     13 H         143.6858  142.6148  161.6922 H       1  UNL1        0.2922
     14 H         139.1460  146.6952  160.7932 H       1  UNL1        0.2922
     15 C         141.1319  142.0587  167.7816 C.ar    1  UNL1        0.0270
     16 C         142.0097  142.5956  168.8731 C.ar    1  UNL1        0.0393
     17 C         141.7974  142.1551  170.2911 C.ar    1  UNL1        0.1704
     18 O         142.6751  142.6920  171.3826 O.3     1  UNL1       -0.5028
     19 C         140.7073  141.1778  170.6178 C.ar    1  UNL1        0.2018
     20 O         140.4951  140.7373  172.0358 O.3     1  UNL1       -0.5009
     21 C         139.8296  140.6409  169.5263 C.ar    1  UNL1        0.1704
     22 O         138.7396  139.6636  169.8528 O.3     1  UNL1       -0.5028
     23 C         140.0419  141.0814  168.1082 C.ar    1  UNL1        0.0393
     24 H         143.3561  143.3025  171.1786 H       1  UNL1        0.2923
     25 H         141.0434  141.0727  172.7176 H       1  UNL1        0.2924
     26 H         138.6069  139.3885  170.7387 H       1  UNL1        0.2923
     27 O         143.3936  140.9131  166.1777 O.3     1  UNL1       -0.4447
     28 O         143.6200  138.5078  167.1334 O.2     1  UNL1       -0.2449
     29 C         143.0478  139.4546  166.1204 C.2     1  UNL1        0.3414
     30 C         142.1298  138.9429  165.0501 C.ar    1  UNL1        0.0819
     31 C         142.6981  138.3276  163.8058 C.ar    1  UNL1        0.0464
     32 C         141.7801  137.8159  162.7355 C.ar    1  UNL1        0.1708
     33 O         142.3484  137.2005  161.4911 O.3     1  UNL1       -0.5028
     34 C         140.2939  137.9196  162.9096 C.ar    1  UNL1        0.2019
     35 O         139.3759  137.4079  161.8393 O.3     1  UNL1       -0.5009
     36 C         139.7256  138.5349  164.1539 C.ar    1  UNL1        0.1708
     37 O         138.2394  138.6386  164.3280 O.3     1  UNL1       -0.5028
     38 C         140.6435  139.0466  165.2242 C.ar    1  UNL1        0.0464
     39 H         143.2768  137.1357  161.3824 H       1  UNL1        0.2923
     40 H         139.7309  137.0235  161.0620 H       1  UNL1        0.2924
     41 H         137.6659  138.3190  163.6594 H       1  UNL1        0.2923
@<TRIPOS>BOND
     1    28    29    2
     2    29    27    1
     3    27     1    1
     4     1     2    1
     5     2     3    1
     6     3     4   ar
     7     4     5    1
     8     4     6   ar
     9     6     7   ar
    10     7     8    1
    11     7     9   ar
    12     9    10   ar
    13    10    11    1
    14    11    12    1
    15    12    15    1
    16    15    16   ar
    17    16    17   ar
    18    17    18    1
    19    17    19   ar
    20    19    20    1
    21    19    21   ar
    22    21    22    1
    23    21    23   ar
    24    29    30    1
    25    30    31   ar
    26    31    32   ar
    27    32    33    1
    28    32    34   ar
    29    34    35    1
    30    34    36   ar
    31    36    37    1
    32    36    38   ar
    33    12     1    1
    34    23    15   ar
    35    38    30   ar
    36    10     3   ar
    37     5    13    1
    38     8    14    1
    39    18    24    1
    40    20    25    1
    41    22    26    1
    42    33    39    1
    43    35    40    1
    44    37    41    1
@<TRIPOS>MOLECULE
*****
 41 44 0 0 0
SMALL
GASTEIGER

@<TRIPOS>ATOM
      1 C         140.7020  140.8107  165.5624 C.3     1  UNL1        0.2175
      2 C         139.9052  140.4031  166.7661 C.3     1  UNL1        0.0803
      3 C         140.5108  140.5013  168.1348 C.ar    1  UNL1        0.0494
      4 C         139.7139  140.0937  169.3386 C.ar    1  UNL1        0.1357
      5 O         138.3114  139.5879  169.1735 O.3     1  UNL1       -0.5056
      6 C         140.3196  140.1918  170.7074 C.ar    1  UNL1        0.0731
      7 C         141.7220  140.6976  170.8724 C.ar    1  UNL1        0.1397
      8 O         142.3277  140.7958  172.2413 O.3     1  UNL1       -0.5053
      9 C         142.5189  141.1052  169.6688 C.ar    1  UNL1        0.0734
     10 C         141.9133  141.0071  168.2999 C.ar    1  UNL1        0.1410
     11 O         142.7101  141.4147  167.0963 O.3     1  UNL1       -0.4711
     12 C         142.1045  141.3165  165.7275 C.3     1  UNL1        0.2283
     13 H         137.9331  139.5266  168.3185 H       1  UNL1        0.2922
     14 H         141.8299  140.5411  172.9932 H       1  UNL1        0.2922
     15 C         142.9013  141.7241  164.5238 C.ar    1  UNL1        0.0270
     16 C         143.0993  143.1781  164.2126 C.ar    1  UNL1        0.0393
     17 C         143.8961  143.5857  163.0089 C.ar    1  UNL1        0.1704
     18 O         144.0942  145.0396  162.6978 O.3     1  UNL1       -0.5028
     19 C         144.4950  142.5394  162.1163 C.ar    1  UNL1        0.2018
     20 O         145.2918  142.9470  160.9127 O.3     1  UNL1       -0.5009
     21 C         144.2970  141.0854  162.4275 C.ar    1  UNL1        0.1704
     22 O         144.8958  140.0391  161.5350 O.3     1  UNL1       -0.5028
     23 C         143.5001  140.6778  163.6312 C.ar    1  UNL1        0.0393
     24 H         143.7201  145.6932  163.2553 H       1  UNL1        0.2923
     25 H         145.4155  143.8552  160.7183 H       1  UNL1        0.2924
     26 H         145.3935  140.2937  160.7831 H       1  UNL1        0.2923
     27 O         140.0964  140.7126  164.1936 O.3     1  UNL1       -0.4447
     28 O         137.8474  142.0082  164.0775 O.2     1  UNL1       -0.2449
     29 C         139.2770  141.8467  163.6529 C.2     1  UNL1        0.3414
     30 C         139.8872  142.8194  162.6877 C.ar    1  UNL1        0.0819
     31 C         139.7528  144.2946  162.9238 C.ar    1  UNL1        0.0464
     32 C         140.3631  145.2672  161.9586 C.ar    1  UNL1        0.1708
     33 O         140.2287  146.7424  162.1946 O.3     1  UNL1       -0.5028
     34 C         141.1076  144.7647  160.7573 C.ar    1  UNL1        0.2019
     35 O         141.7178  145.7373  159.7921 O.3     1  UNL1       -0.5009
     36 C         141.2420  143.2895  160.5212 C.ar    1  UNL1        0.1708
     37 O         141.9865  142.7869  159.3200 O.3     1  UNL1       -0.5028
     38 C         140.6318  142.3168  161.4864 C.ar    1  UNL1        0.0464
     39 H         139.7636  147.0564  162.9450 H       1  UNL1        0.2923
     40 H         141.6339  146.6588  159.9396 H       1  UNL1        0.2924
     41 H         142.3677  143.3945  158.7171 H       1  UNL1        0.2923
@<TRIPOS>BOND
     1    28    29    2
     2    29    27    1
     3    27     1    1
     4     1     2    1
     5     2     3    1
     6     3     4   ar
     7     4     5    1
     8     4     6   ar
     9     6     7   ar
    10     7     8    1
    11     7     9   ar
    12     9    10   ar
    13    10    11    1
    14    11    12    1
    15    12    15    1
    16    15    16   ar
    17    16    17   ar
    18    17    18    1
    19    17    19   ar
    20    19    20    1
    21    19    21   ar
    22    21    22    1
    23    21    23   ar
    24    29    30    1
    25    30    31   ar
    26    31    32   ar
    27    32    33    1
    28    32    34   ar
    29    34    35    1
    30    34    36   ar
    31    36    37    1
    32    36    38   ar
    33    12     1    1
    34    23    15   ar
    35    38    30   ar
    36    10     3   ar
    37     5    13    1
    38     8    14    1
    39    18    24    1
    40    20    25    1
    41    22    26    1
    42    33    39    1
    43    35    40    1
    44    37    41    1
@<TRIPOS>MOLECULE
*****
 41 44 0 0 0
SMALL
GASTEIGER

@<TRIPOS>ATOM
      1 C         139.0745  141.0290  166.0897 C.3     1  UNL1        0.2175
      2 C         138.5034  141.4262  164.7608 C.3     1  UNL1        0.0803
      3 C         138.9577  142.6927  164.0977 C.ar    1  UNL1        0.0494
      4 C         138.3866  143.0900  162.7687 C.ar    1  UNL1        0.1357
      5 O         137.3613  142.2208  162.1029 O.3     1  UNL1       -0.5056
      6 C         138.8409  144.3564  162.1056 C.ar    1  UNL1        0.0731
      7 C         139.8662  145.2256  162.7714 C.ar    1  UNL1        0.1397
      8 O         140.3204  146.4921  162.1082 O.3     1  UNL1       -0.5053
      9 C         140.4372  144.8284  164.1003 C.ar    1  UNL1        0.0734
     10 C         139.9830  143.5619  164.7635 C.ar    1  UNL1        0.1410
     11 O         140.5540  143.1646  166.0924 O.3     1  UNL1       -0.4711
     12 C         140.0998  141.8982  166.7555 C.3     1  UNL1        0.2283
     13 H         137.0776  141.4297  162.5171 H       1  UNL1        0.2922
     14 H         139.9637  146.7403  161.2781 H       1  UNL1        0.2922
     15 C         140.6708  141.5009  168.0845 C.ar    1  UNL1        0.0270
     16 C         140.2667  142.2400  169.3256 C.ar    1  UNL1        0.0393
     17 C         140.8377  141.8427  170.6545 C.ar    1  UNL1        0.1704
     18 O         140.4336  142.5818  171.8957 O.3     1  UNL1       -0.5028
     19 C         141.8129  140.7063  170.7424 C.ar    1  UNL1        0.2018
     20 O         142.3839  140.3090  172.0713 O.3     1  UNL1       -0.5009
     21 C         142.2170  139.9672  169.5012 C.ar    1  UNL1        0.1704
     22 O         143.1922  138.8308  169.5890 O.3     1  UNL1       -0.5028
     23 C         141.6460  140.3645  168.1723 C.ar    1  UNL1        0.0393
     24 H         139.8244  143.2917  171.8408 H       1  UNL1        0.2923
     25 H         142.1314  140.7707  172.8466 H       1  UNL1        0.2924
     26 H         143.5489  138.5827  170.4192 H       1  UNL1        0.2923
     27 O         138.6203  139.7625  166.7529 O.3     1  UNL1       -0.4447
     28 O         137.7894  137.3203  166.4434 O.2     1  UNL1       -0.2449
     29 C         138.6438  138.4686  165.9944 C.2     1  UNL1        0.3414
     30 C         139.5216  138.3229  164.7869 C.ar    1  UNL1        0.0819
     31 C         138.9136  138.0181  163.4499 C.ar    1  UNL1        0.0464
     32 C         139.7916  137.8724  162.2424 C.ar    1  UNL1        0.1708
     33 O         139.1836  137.5676  160.9055 O.3     1  UNL1       -0.5028
     34 C         141.2775  138.0316  162.3718 C.ar    1  UNL1        0.2019
     35 O         142.1553  137.8859  161.1643 O.3     1  UNL1       -0.5009
     36 C         141.8855  138.3364  163.7088 C.ar    1  UNL1        0.1708
     37 O         143.3713  138.4956  163.8382 O.3     1  UNL1       -0.5028
     38 C         141.0076  138.4821  164.9163 C.ar    1  UNL1        0.0464
     39 H         138.2554  137.4682  160.8246 H       1  UNL1        0.2923
     40 H         141.7755  137.6955  160.3292 H       1  UNL1        0.2924
     41 H         143.9197  138.4046  163.0839 H       1  UNL1        0.2923
@<TRIPOS>BOND
     1    28    29    2
     2    29    27    1
     3    27     1    1
     4     1     2    1
     5     2     3    1
     6     3     4   ar
     7     4     5    1
     8     4     6   ar
     9     6     7   ar
    10     7     8    1
    11     7     9   ar
    12     9    10   ar
    13    10    11    1
    14    11    12    1
    15    12    15    1
    16    15    16   ar
    17    16    17   ar
    18    17    18    1
    19    17    19   ar
    20    19    20    1
    21    19    21   ar
    22    21    22    1
    23    21    23   ar
    24    29    30    1
    25    30    31   ar
    26    31    32   ar
    27    32    33    1
    28    32    34   ar
    29    34    35    1
    30    34    36   ar
    31    36    37    1
    32    36    38   ar
    33    12     1    1
    34    23    15   ar
    35    38    30   ar
    36    10     3   ar
    37     5    13    1
    38     8    14    1
    39    18    24    1
    40    20    25    1
    41    22    26    1
    42    33    39    1
    43    35    40    1
    44    37    41    1
@<TRIPOS>MOLECULE
*****
 41 44 0 0 0
SMALL
GASTEIGER

@<TRIPOS>ATOM
      1 C         142.4843  141.1141  165.6735 C.3     1  UNL1        0.2175
      2 C         143.0569  141.7133  166.9238 C.3     1  UNL1        0.0803
      3 C         142.4428  141.3984  168.2556 C.ar    1  UNL1        0.0494
      4 C         143.0153  141.9976  169.5059 C.ar    1  UNL1        0.1357
      5 O         144.2019  142.9116  169.4244 O.3     1  UNL1       -0.5056
      6 C         142.4013  141.6827  170.8377 C.ar    1  UNL1        0.0731
      7 C         141.2147  140.7688  170.9193 C.ar    1  UNL1        0.1397
      8 O         140.6006  140.4539  172.2512 O.3     1  UNL1       -0.5053
      9 C         140.6422  140.1696  169.6690 C.ar    1  UNL1        0.0734
     10 C         141.2562  140.4845  168.3371 C.ar    1  UNL1        0.1410
     11 O         140.6837  139.8853  167.0869 O.3     1  UNL1       -0.4711
     12 C         141.2977  140.2002  165.7551 C.3     1  UNL1        0.2283
     13 H         144.5855  143.1082  168.5924 H       1  UNL1        0.2922
     14 H         140.9583  140.8282  173.0322 H       1  UNL1        0.2922
     15 C         140.7252  139.6010  164.5047 C.ar    1  UNL1        0.0270
     16 C         141.5051  138.5723  163.7408 C.ar    1  UNL1        0.0393
     17 C         140.9326  137.9732  162.4905 C.ar    1  UNL1        0.1704
     18 O         141.7125  136.9445  161.7266 O.3     1  UNL1       -0.5028
     19 C         139.5802  138.4027  162.0041 C.ar    1  UNL1        0.2018
     20 O         139.0078  137.8036  160.7538 O.3     1  UNL1       -0.5009
     21 C         138.8003  139.4314  162.7680 C.ar    1  UNL1        0.1704
     22 O         137.4480  139.8610  162.2816 O.3     1  UNL1       -0.5028
     23 C         139.3729  140.0306  164.0183 C.ar    1  UNL1        0.0393
     24 H         142.5573  136.6762  162.0304 H       1  UNL1        0.2923
     25 H         139.4949  137.1610  160.2766 H       1  UNL1        0.2924
     26 H         137.0904  139.4867  161.5006 H       1  UNL1        0.2923
     27 O         143.0984  141.4290  164.3416 O.3     1  UNL1       -0.4447
     28 O         144.0366  143.6202  163.3081 O.2     1  UNL1       -0.2449
     29 C         142.8681  142.7687  163.7074 C.2     1  UNL1        0.3414
     30 C         141.4693  143.2568  163.4727 C.ar    1  UNL1        0.0819
     31 C         140.7703  144.0649  164.5255 C.ar    1  UNL1        0.0464
     32 C         139.3715  144.5530  164.2906 C.ar    1  UNL1        0.1708
     33 O         138.6725  145.3611  165.3434 O.3     1  UNL1       -0.5028
     34 C         138.6718  144.2331  163.0030 C.ar    1  UNL1        0.2019
     35 O         137.2730  144.7212  162.7682 O.3     1  UNL1       -0.5009
     36 C         139.3708  143.4250  161.9502 C.ar    1  UNL1        0.1708
     37 O         138.6711  143.1051  160.6626 O.3     1  UNL1       -0.5028
     38 C         140.7695  142.9369  162.1850 C.ar    1  UNL1        0.0464
     39 H         139.1096  145.5609  166.1478 H       1  UNL1        0.2923
     40 H         136.8364  145.2260  163.4259 H       1  UNL1        0.2924
     41 H         137.7973  143.4100  160.5159 H       1  UNL1        0.2923
@<TRIPOS>BOND
     1    28    29    2
     2    29    27    1
     3    27     1    1
     4     1     2    1
     5     2     3    1
     6     3     4   ar
     7     4     5    1
     8     4     6   ar
     9     6     7   ar
    10     7     8    1
    11     7     9   ar
    12     9    10   ar
    13    10    11    1
    14    11    12    1
    15    12    15    1
    16    15    16   ar
    17    16    17   ar
    18    17    18    1
    19    17    19   ar
    20    19    20    1
    21    19    21   ar
    22    21    22    1
    23    21    23   ar
    24    29    30    1
    25    30    31   ar
    26    31    32   ar
    27    32    33    1
    28    32    34   ar
    29    34    35    1
    30    34    36   ar
    31    36    37    1
    32    36    38   ar
    33    12     1    1
    34    23    15   ar
    35    38    30   ar
    36    10     3   ar
    37     5    13    1
    38     8    14    1
    39    18    24    1
    40    20    25    1
    41    22    26    1
    42    33    39    1
    43    35    40    1
    44    37    41    1
