@<TRIPOS>MOLECULE
*****
 30 34 0 0 0
SMALL
GASTEIGER

@<TRIPOS>ATOM
      1 C         141.8404  141.8439  166.5376 C.ar    1  UNL1        0.1010
      2 C         140.9611  142.0387  165.3382 C.ar    1  UNL1        0.0288
      3 C         141.5094  142.6925  164.1046 C.ar    1  UNL1        0.0528
      4 S         140.8865  143.0167  162.7791 S.2     1  UNL1       -0.0514
      5 C         141.9291  143.6760  161.9258 C.ar    1  UNL1        0.1631
      6 N         143.1964  143.7593  162.7239 N.ar    1  UNL1       -0.2225
      7 C         142.9370  143.1515  164.0704 C.ar    1  UNL1        0.1084
      8 C         143.8164  142.9567  165.2699 C.ar    1  UNL1        0.1185
      9 N         143.2681  142.3028  166.5035 N.ar    1  UNL1       -0.2407
     10 N         139.6472  139.2285  171.4723 N.pl3   1  UNL1       -0.3414
     11 C         140.1955  139.8823  170.2387 C.ar    1  UNL1        0.1448
     12 C         141.5450  140.5363  170.2731 C.ar    1  UNL1        0.1326
     13 N         142.0933  141.1902  169.0394 N.ar    1  UNL1       -0.2378
     14 C         141.2921  141.1900  167.7713 C.ar    1  UNL1        0.1181
     15 C         139.9426  140.5361  167.7369 C.ar    1  UNL1        0.1209
     16 N         139.3943  139.8822  168.9705 N.ar    1  UNL1       -0.2264
     17 H         140.1731  139.2286  172.3046 H       1  UNL1        0.1438
     18 H         138.7615  138.7993  171.4496 H       1  UNL1        0.1438
     19 N         141.7379  144.1660  160.5210 N.pl3   1  UNL1       -0.2881
     20 C         142.6167  143.6497  159.4205 C.3     1  UNL1        0.0940
     21 C         142.4256  144.1397  158.0157 C.3     1  UNL1        0.0375
     22 C         141.3557  145.1460  157.7114 C.3     1  UNL1        0.0609
     23 C         140.4769  145.6623  158.8119 C.3     1  UNL1        0.0375
     24 C         140.6681  145.1724  160.2167 C.3     1  UNL1        0.0940
     25 N         141.1646  145.6360  156.3067 N.3     1  UNL1       -0.2738
     26 C         142.0523  145.1301  155.2086 C.3     1  UNL1        0.0720
     27 C         141.8612  145.6201  153.8038 C.3     1  UNL1        0.0174
     28 C         140.7823  146.6160  153.4971 C.3     1  UNL1        0.0029
     29 C         139.8945  147.1219  154.5952 C.3     1  UNL1        0.0174
     30 C         140.0856  146.6319  156.0000 C.3     1  UNL1        0.0720
@<TRIPOS>BOND
     1    10    11    1
     2    11    12   ar
     3    12    13   ar
     4    13    14   ar
     5    14     1    1
     6     1     2   ar
     7     2     3   ar
     8     3     4   ar
     9     4     5   ar
    10     5    19    1
    11    19    20    1
    12    20    21    1
    13    21    22    1
    14    22    25    1
    15    25    26    1
    16    26    27    1
    17    27    28    1
    18    28    29    1
    19    29    30    1
    20    22    23    1
    21    23    24    1
    22     5     6   ar
    23     6     7   ar
    24     7     8   ar
    25     8     9   ar
    26    14    15   ar
    27    15    16   ar
    28    16    11   ar
    29     9     1   ar
    30     7     3   ar
    31    24    19    1
    32    30    25    1
    33    10    17    1
    34    10    18    1
@<TRIPOS>MOLECULE
*****
 30 34 0 0 0
SMALL
GASTEIGER

@<TRIPOS>ATOM
      1 C         141.1099  140.2626  166.7332 C.ar    1  UNL1        0.1010
      2 C         140.4762  140.4785  165.3909 C.ar    1  UNL1        0.0288
      3 C         140.9775  139.7246  164.1950 C.ar    1  UNL1        0.0528
      4 S         140.5542  139.7289  162.7560 S.2     1  UNL1       -0.0514
      5 C         141.4274  138.7618  162.0129 C.ar    1  UNL1        0.1631
      6 N         142.3905  138.1598  162.9928 N.ar    1  UNL1       -0.2225
      7 C         142.1125  138.7549  164.3413 C.ar    1  UNL1        0.1084
      8 C         142.7461  138.5389  165.6836 C.ar    1  UNL1        0.1185
      9 N         142.2448  139.2928  166.8796 N.ar    1  UNL1       -0.2407
     10 N         139.1046  143.2779  171.5173 N.pl3   1  UNL1       -0.3414
     11 C         139.6059  142.5241  170.3213 C.ar    1  UNL1        0.1448
     12 C         140.4606  143.2173  169.3020 C.ar    1  UNL1        0.1326
     13 N         140.9619  142.4635  168.1059 N.ar    1  UNL1       -0.2378
     14 C         140.6085  141.0164  167.9293 C.ar    1  UNL1        0.1181
     15 C         139.7539  140.3232  168.9486 C.ar    1  UNL1        0.1209
     16 N         139.2526  141.0770  170.1446 N.ar    1  UNL1       -0.2264
     17 H         139.3365  144.2276  171.6333 H       1  UNL1        0.1438
     18 H         138.5437  142.8229  172.1863 H       1  UNL1        0.1438
     19 N         141.3510  138.4512  160.5474 N.pl3   1  UNL1       -0.2881
     20 C         140.0465  138.5852  159.8194 C.3     1  UNL1        0.0940
     21 C         139.9701  138.2746  158.3539 C.3     1  UNL1        0.0375
     22 C         141.1982  137.8301  157.6164 C.3     1  UNL1        0.0609
     23 C         142.5028  137.6961  158.3444 C.3     1  UNL1        0.0375
     24 C         142.5792  138.0067  159.8100 C.3     1  UNL1        0.0940
     25 N         141.1218  137.5195  156.1509 N.3     1  UNL1       -0.2738
     26 C         139.8001  137.1934  155.5213 C.3     1  UNL1        0.0720
     27 C         139.7237  136.8829  154.0558 C.3     1  UNL1        0.0174
     28 C         140.9691  136.8983  153.2199 C.3     1  UNL1        0.0029
     29 C         142.2908  137.2244  153.8496 C.3     1  UNL1        0.0174
     30 C         142.3672  137.5350  155.3151 C.3     1  UNL1        0.0720
@<TRIPOS>BOND
     1    10    11    1
     2    11    12   ar
     3    12    13   ar
     4    13    14   ar
     5    14     1    1
     6     1     2   ar
     7     2     3   ar
     8     3     4   ar
     9     4     5   ar
    10     5    19    1
    11    19    20    1
    12    20    21    1
    13    21    22    1
    14    22    25    1
    15    25    26    1
    16    26    27    1
    17    27    28    1
    18    28    29    1
    19    29    30    1
    20    22    23    1
    21    23    24    1
    22     5     6   ar
    23     6     7   ar
    24     7     8   ar
    25     8     9   ar
    26    14    15   ar
    27    15    16   ar
    28    16    11   ar
    29     9     1   ar
    30     7     3   ar
    31    24    19    1
    32    30    25    1
    33    10    17    1
    34    10    18    1
@<TRIPOS>MOLECULE
*****
 30 34 0 0 0
SMALL
GASTEIGER

@<TRIPOS>ATOM
      1 C         140.4054  140.6640  165.6550 C.ar    1  UNL1        0.1010
      2 C         141.1924  141.4658  164.6612 C.ar    1  UNL1        0.0288
      3 C         140.5323  141.9671  163.4111 C.ar    1  UNL1        0.0528
      4 S         141.0491  142.7755  162.2581 S.2     1  UNL1       -0.0514
      5 C         139.9214  142.9748  161.2892 C.ar    1  UNL1        0.1631
      6 N         138.7077  142.2895  161.8435 N.ar    1  UNL1       -0.2225
      7 C         139.0852  141.6668  163.1548 C.ar    1  UNL1        0.1084
      8 C         138.2982  140.8650  164.1487 C.ar    1  UNL1        0.1185
      9 N         138.9583  140.3637  165.3988 N.ar    1  UNL1       -0.2407
     10 N         143.0459  138.6583  170.6556 N.pl3   1  UNL1       -0.3414
     11 C         142.3858  139.1598  169.4055 C.ar    1  UNL1        0.1448
     12 C         141.0594  139.8557  169.4851 C.ar    1  UNL1        0.1326
     13 N         140.3993  140.3572  168.2349 N.ar    1  UNL1       -0.2378
     14 C         141.0655  140.1626  166.9052 C.ar    1  UNL1        0.1181
     15 C         142.3919  139.4666  166.8256 C.ar    1  UNL1        0.1209
     16 N         143.0520  138.9652  168.0757 N.ar    1  UNL1       -0.2264
     17 H         142.6086  138.7860  171.5284 H       1  UNL1        0.1438
     18 H         143.9164  138.2015  170.6033 H       1  UNL1        0.1438
     19 N         139.9947  143.7272  159.9936 N.pl3   1  UNL1       -0.2881
     20 C         140.6983  145.0505  159.9336 C.3     1  UNL1        0.0940
     21 C         140.7715  145.8029  158.6380 C.3     1  UNL1        0.0375
     22 C         140.1412  145.2319  157.4024 C.3     1  UNL1        0.0609
     23 C         139.4376  143.9086  157.4625 C.3     1  UNL1        0.0375
     24 C         139.3643  143.1562  158.7581 C.3     1  UNL1        0.0940
     25 N         140.2144  145.9843  156.1068 N.3     1  UNL1       -0.2738
     26 C         141.0843  145.4790  154.9943 C.3     1  UNL1        0.0720
     27 C         141.1576  146.2314  153.6987 C.3     1  UNL1        0.0174
     28 C         140.3609  147.4890  153.5156 C.3     1  UNL1        0.0029
     29 C         139.4910  147.9943  154.6282 C.3     1  UNL1        0.0174
     30 C         139.4177  147.2419  155.9238 C.3     1  UNL1        0.0720
@<TRIPOS>BOND
     1    10    11    1
     2    11    12   ar
     3    12    13   ar
     4    13    14   ar
     5    14     1    1
     6     1     2   ar
     7     2     3   ar
     8     3     4   ar
     9     4     5   ar
    10     5    19    1
    11    19    20    1
    12    20    21    1
    13    21    22    1
    14    22    25    1
    15    25    26    1
    16    26    27    1
    17    27    28    1
    18    28    29    1
    19    29    30    1
    20    22    23    1
    21    23    24    1
    22     5     6   ar
    23     6     7   ar
    24     7     8   ar
    25     8     9   ar
    26    14    15   ar
    27    15    16   ar
    28    16    11   ar
    29     9     1   ar
    30     7     3   ar
    31    24    19    1
    32    30    25    1
    33    10    17    1
    34    10    18    1
@<TRIPOS>MOLECULE
*****
 30 34 0 0 0
SMALL
GASTEIGER

@<TRIPOS>ATOM
      1 C         141.3690  142.4466  166.3211 C.ar    1  UNL1        0.1010
      2 C         142.1226  142.3794  165.0259 C.ar    1  UNL1        0.0288
      3 C         141.5877  143.0760  163.8100 C.ar    1  UNL1        0.0528
      4 S         142.1059  143.1856  162.4066 S.2     1  UNL1       -0.0514
      5 C         141.1377  144.0173  161.6185 C.ar    1  UNL1        0.1631
      6 N         140.0212  144.4217  162.5349 N.ar    1  UNL1       -0.2225
      7 C         140.2992  143.8400  163.8893 C.ar    1  UNL1        0.1084
      8 C         139.5457  143.9072  165.1845 C.ar    1  UNL1        0.1185
      9 N         140.0806  143.2105  166.4004 N.ar    1  UNL1       -0.2407
     10 N         143.5085  139.6598  171.1849 N.pl3   1  UNL1       -0.3414
     11 C         142.9737  140.3565  169.9690 C.ar    1  UNL1        0.1448
     12 C         143.3934  141.7643  169.6658 C.ar    1  UNL1        0.1326
     13 N         142.8585  142.4610  168.4498 N.ar    1  UNL1       -0.2378
     14 C         141.9039  141.7499  167.5371 C.ar    1  UNL1        0.1181
     15 C         141.4842  140.3421  167.8402 C.ar    1  UNL1        0.1209
     16 N         142.0191  139.6454  169.0562 N.ar    1  UNL1       -0.2264
     17 H         144.1350  140.1265  171.7840 H       1  UNL1        0.1438
     18 H         143.2330  138.7358  171.3839 H       1  UNL1        0.1438
     19 N         141.2640  144.3807  160.1687 N.pl3   1  UNL1       -0.2881
     20 C         142.3260  143.7406  159.3248 C.3     1  UNL1        0.0940
     21 C         142.4523  144.1040  157.8750 C.3     1  UNL1        0.0375
     22 C         141.5165  145.1075  157.2691 C.3     1  UNL1        0.0609
     23 C         140.4544  145.7476  158.1130 C.3     1  UNL1        0.0375
     24 C         140.3282  145.3842  159.5628 C.3     1  UNL1        0.0940
     25 N         141.6427  145.4709  155.8192 N.3     1  UNL1       -0.2738
     26 C         140.6420  146.3922  155.1871 C.3     1  UNL1        0.0720
     27 C         140.7682  146.7557  153.7373 C.3     1  UNL1        0.0174
     28 C         141.8952  146.1978  152.9196 C.3     1  UNL1        0.0029
     29 C         142.8960  145.2765  153.5518 C.3     1  UNL1        0.0174
     30 C         142.7697  144.9131  155.0016 C.3     1  UNL1        0.0720
@<TRIPOS>BOND
     1    10    11    1
     2    11    12   ar
     3    12    13   ar
     4    13    14   ar
     5    14     1    1
     6     1     2   ar
     7     2     3   ar
     8     3     4   ar
     9     4     5   ar
    10     5    19    1
    11    19    20    1
    12    20    21    1
    13    21    22    1
    14    22    25    1
    15    25    26    1
    16    26    27    1
    17    27    28    1
    18    28    29    1
    19    29    30    1
    20    22    23    1
    21    23    24    1
    22     5     6   ar
    23     6     7   ar
    24     7     8   ar
    25     8     9   ar
    26    14    15   ar
    27    15    16   ar
    28    16    11   ar
    29     9     1   ar
    30     7     3   ar
    31    24    19    1
    32    30    25    1
    33    10    17    1
    34    10    18    1
@<TRIPOS>MOLECULE
*****
 30 34 0 0 0
SMALL
GASTEIGER

@<TRIPOS>ATOM
      1 C         139.9193  145.1543  157.3763 C.ar    1  UNL1        0.1010
      2 C         140.3853  145.6262  158.7217 C.ar    1  UNL1        0.0288
      3 C         140.3790  144.6853  159.8900 C.ar    1  UNL1        0.0528
      4 S         140.7774  144.8643  161.3250 S.2     1  UNL1       -0.0514
      5 C         140.5514  143.5623  162.0347 C.ar    1  UNL1        0.1631
      6 N         140.0133  142.5787  161.0383 N.ar    1  UNL1       -0.2225
      7 C         139.9068  143.2727  159.7127 C.ar    1  UNL1        0.1084
      8 C         139.4408  142.8009  158.3673 C.ar    1  UNL1        0.1185
      9 N         139.4471  143.7417  157.1991 N.ar    1  UNL1       -0.2407
     10 N         139.9443  148.9176  152.7033 N.pl3   1  UNL1       -0.3414
     11 C         139.9381  147.9768  153.8715 C.ar    1  UNL1        0.1448
     12 C         140.7623  146.7242  153.8301 C.ar    1  UNL1        0.1326
     13 N         140.7560  145.7834  154.9984 N.ar    1  UNL1       -0.2378
     14 C         139.9256  146.0952  156.2080 C.ar    1  UNL1        0.1181
     15 C         139.1014  147.3478  156.2494 C.ar    1  UNL1        0.1209
     16 N         139.1077  148.2886  155.0812 N.ar    1  UNL1       -0.2264
     17 H         140.4893  148.7130  151.9093 H       1  UNL1        0.1438
     18 H         139.4034  149.7398  152.7304 H       1  UNL1        0.1438
     19 N         140.8168  143.2915  163.4860 N.pl3   1  UNL1       -0.2881
     20 C         139.6919  143.3448  164.4768 C.3     1  UNL1        0.0940
     21 C         139.9573  143.0740  165.9281 C.3     1  UNL1        0.0375
     22 C         141.3476  142.7500  166.3885 C.3     1  UNL1        0.0609
     23 C         142.4725  142.6967  165.3977 C.3     1  UNL1        0.0375
     24 C         142.2070  142.9675  163.9464 C.3     1  UNL1        0.0940
     25 N         141.6130  142.4792  167.8398 N.3     1  UNL1       -0.2738
     26 C         142.9724  142.0242  168.2815 C.3     1  UNL1        0.0720
     27 C         143.2378  141.7534  169.7328 C.3     1  UNL1        0.0174
     28 C         142.1439  141.9376  170.7424 C.3     1  UNL1        0.0029
     29 C         140.7845  142.3927  170.3007 C.3     1  UNL1        0.0174
     30 C         140.5191  142.6635  168.8494 C.3     1  UNL1        0.0720
@<TRIPOS>BOND
     1    10    11    1
     2    11    12   ar
     3    12    13   ar
     4    13    14   ar
     5    14     1    1
     6     1     2   ar
     7     2     3   ar
     8     3     4   ar
     9     4     5   ar
    10     5    19    1
    11    19    20    1
    12    20    21    1
    13    21    22    1
    14    22    25    1
    15    25    26    1
    16    26    27    1
    17    27    28    1
    18    28    29    1
    19    29    30    1
    20    22    23    1
    21    23    24    1
    22     5     6   ar
    23     6     7   ar
    24     7     8   ar
    25     8     9   ar
    26    14    15   ar
    27    15    16   ar
    28    16    11   ar
    29     9     1   ar
    30     7     3   ar
    31    24    19    1
    32    30    25    1
    33    10    17    1
    34    10    18    1
@<TRIPOS>MOLECULE
*****
 30 34 0 0 0
SMALL
GASTEIGER

@<TRIPOS>ATOM
      1 C         142.9818  137.8406  157.5394 C.ar    1  UNL1        0.1010
      2 C         142.4858  137.6485  158.9419 C.ar    1  UNL1        0.0288
      3 C         142.6518  138.7442  159.9528 C.ar    1  UNL1        0.0528
      4 S         142.2660  138.8424  161.3990 S.2     1  UNL1       -0.0514
      5 C         142.6896  140.1908  161.9013 C.ar    1  UNL1        0.1631
      6 N         143.3373  140.9260  160.7654 N.ar    1  UNL1       -0.2225
      7 C         143.3139  140.0319  159.5612 C.ar    1  UNL1        0.1084
      8 C         143.8100  140.2240  158.1588 C.ar    1  UNL1        0.1185
      9 N         143.6439  139.1284  157.1479 N.ar    1  UNL1       -0.2407
     10 N         142.3177  133.4581  153.4955 N.pl3   1  UNL1       -0.3414
     11 C         142.4838  134.5537  154.5065 C.ar    1  UNL1        0.1448
     12 C         142.8068  134.2163  155.9319 C.ar    1  UNL1        0.1326
     13 N         142.9729  135.3120  156.9429 N.ar    1  UNL1       -0.2378
     14 C         142.8158  136.7450  156.5284 C.ar    1  UNL1        0.1181
     15 C         142.4927  137.0824  155.1030 C.ar    1  UNL1        0.1209
     16 N         142.3267  135.9868  154.0921 N.ar    1  UNL1       -0.2264
     17 H         142.4208  132.5176  153.7675 H       1  UNL1        0.1438
     18 H         142.1057  133.6796  152.5600 H       1  UNL1        0.1438
     19 N         142.4991  140.7125  163.2947 N.pl3   1  UNL1       -0.2881
     20 C         141.6934  141.9563  163.5262 C.3     1  UNL1        0.0940
     21 C         141.5029  142.4780  164.9196 C.3     1  UNL1        0.0375
     22 C         142.1180  141.7558  166.0815 C.3     1  UNL1        0.0609
     23 C         142.9237  140.5120  165.8499 C.3     1  UNL1        0.0375
     24 C         143.1142  139.9903  164.4565 C.3     1  UNL1        0.0940
     25 N         141.9275  142.2775  167.4748 N.3     1  UNL1       -0.2738
     26 C         140.5995  142.8369  167.8912 C.3     1  UNL1        0.0720
     27 C         140.4089  143.3586  169.2846 C.3     1  UNL1        0.0174
     28 C         141.5464  143.3208  170.2616 C.3     1  UNL1        0.0029
     29 C         142.8744  142.7614  169.8453 C.3     1  UNL1        0.0174
     30 C         143.0649  142.2397  168.4519 C.3     1  UNL1        0.0720
@<TRIPOS>BOND
     1    10    11    1
     2    11    12   ar
     3    12    13   ar
     4    13    14   ar
     5    14     1    1
     6     1     2   ar
     7     2     3   ar
     8     3     4   ar
     9     4     5   ar
    10     5    19    1
    11    19    20    1
    12    20    21    1
    13    21    22    1
    14    22    25    1
    15    25    26    1
    16    26    27    1
    17    27    28    1
    18    28    29    1
    19    29    30    1
    20    22    23    1
    21    23    24    1
    22     5     6   ar
    23     6     7   ar
    24     7     8   ar
    25     8     9   ar
    26    14    15   ar
    27    15    16   ar
    28    16    11   ar
    29     9     1   ar
    30     7     3   ar
    31    24    19    1
    32    30    25    1
    33    10    17    1
    34    10    18    1
@<TRIPOS>MOLECULE
*****
 30 34 0 0 0
SMALL
GASTEIGER

@<TRIPOS>ATOM
      1 C         140.6490  141.2114  166.9081 C.ar    1  UNL1        0.1010
      2 C         141.0457  141.5070  165.4920 C.ar    1  UNL1        0.0288
      3 C         140.3487  140.8156  164.3580 C.ar    1  UNL1        0.0528
      4 S         140.5218  140.9033  162.8706 S.2     1  UNL1       -0.0514
      5 C         139.5351  139.9705  162.2332 C.ar    1  UNL1        0.1631
      6 N         138.7521  139.3063  163.3268 N.ar    1  UNL1       -0.2225
      7 C         139.2550  139.8286  164.6399 C.ar    1  UNL1        0.1084
      8 C         138.8582  139.5329  166.0559 C.ar    1  UNL1        0.1185
      9 N         139.5552  140.2243  167.1900 N.ar    1  UNL1       -0.2407
     10 N         143.4368  143.9769  171.4446 N.pl3   1  UNL1       -0.3414
     11 C         142.7399  143.2855  170.3105 C.ar    1  UNL1        0.1448
     12 C         143.4751  142.2720  169.4846 C.ar    1  UNL1        0.1326
     13 N         142.7781  141.5806  168.3505 N.ar    1  UNL1       -0.2378
     14 C         141.3460  141.9028  168.0422 C.ar    1  UNL1        0.1181
     15 C         140.6107  142.9164  168.8681 C.ar    1  UNL1        0.1209
     16 N         141.3077  143.6077  170.0022 N.ar    1  UNL1       -0.2264
     17 H         144.3768  143.7655  171.6469 H       1  UNL1        0.1438
     18 H         142.9542  144.6422  171.9866 H       1  UNL1        0.1438
     19 N         139.3617  139.7420  160.7609 N.pl3   1  UNL1       -0.2881
     20 C         140.1105  138.6347  160.0805 C.3     1  UNL1        0.0940
     21 C         139.9371  138.4062  158.6082 C.3     1  UNL1        0.0375
     22 C         139.0150  139.2851  157.8163 C.3     1  UNL1        0.0609
     23 C         138.2662  140.3925  158.4967 C.3     1  UNL1        0.0375
     24 C         138.4396  140.6209  159.9690 C.3     1  UNL1        0.0940
     25 N         138.8416  139.0566  156.3439 N.3     1  UNL1       -0.2738
     26 C         138.2788  140.1439  155.4774 C.3     1  UNL1        0.0720
     27 C         138.1055  139.9154  154.0051 C.3     1  UNL1        0.0174
     28 C         138.4949  138.5997  153.3993 C.3     1  UNL1        0.0029
     29 C         139.0577  137.5123  154.2659 C.3     1  UNL1        0.0174
     30 C         139.2311  137.7408  155.7382 C.3     1  UNL1        0.0720
@<TRIPOS>BOND
     1    10    11    1
     2    11    12   ar
     3    12    13   ar
     4    13    14   ar
     5    14     1    1
     6     1     2   ar
     7     2     3   ar
     8     3     4   ar
     9     4     5   ar
    10     5    19    1
    11    19    20    1
    12    20    21    1
    13    21    22    1
    14    22    25    1
    15    25    26    1
    16    26    27    1
    17    27    28    1
    18    28    29    1
    19    29    30    1
    20    22    23    1
    21    23    24    1
    22     5     6   ar
    23     6     7   ar
    24     7     8   ar
    25     8     9   ar
    26    14    15   ar
    27    15    16   ar
    28    16    11   ar
    29     9     1   ar
    30     7     3   ar
    31    24    19    1
    32    30    25    1
    33    10    17    1
    34    10    18    1
@<TRIPOS>MOLECULE
*****
 30 34 0 0 0
SMALL
GASTEIGER

@<TRIPOS>ATOM
      1 C         140.7422  139.9169  165.5076 C.ar    1  UNL1        0.1010
      2 C         141.9791  140.4319  164.8333 C.ar    1  UNL1        0.0288
      3 C         142.0780  140.4189  163.3366 C.ar    1  UNL1        0.0528
      4 S         143.1631  140.8578  162.3986 S.2     1  UNL1       -0.0514
      5 C         142.6958  140.6010  160.9966 C.ar    1  UNL1        0.1631
      6 N         141.3218  140.0035  161.0681 N.ar    1  UNL1       -0.2225
      7 C         140.9399  139.8910  162.5143 C.ar    1  UNL1        0.1084
      8 C         139.7030  139.3760  163.1887 C.ar    1  UNL1        0.1185
      9 N         139.6041  139.3889  164.6853 N.ar    1  UNL1       -0.2407
     10 N         140.3463  139.9687  171.4944 N.pl3   1  UNL1       -0.3414
     11 C         140.4453  139.9557  169.9977 C.ar    1  UNL1        0.1448
     12 C         141.7907  139.9767  169.3348 C.ar    1  UNL1        0.1326
     13 N         141.8896  139.9637  167.8381 N.ar    1  UNL1       -0.2378
     14 C         140.6432  139.9299  167.0043 C.ar    1  UNL1        0.1181
     15 C         139.2978  139.9089  167.6672 C.ar    1  UNL1        0.1209
     16 N         139.1988  139.9219  169.1639 N.ar    1  UNL1       -0.2264
     17 H         141.1644  139.9909  172.0416 H       1  UNL1        0.1438
     18 H         139.4632  139.9550  171.9294 H       1  UNL1        0.1438
     19 N         143.4670  140.8909  159.7431 N.pl3   1  UNL1       -0.2881
     20 C         144.2586  142.1596  159.6260 C.3     1  UNL1        0.0940
     21 C         145.0298  142.4495  158.3725 C.3     1  UNL1        0.0375
     22 C         145.0095  141.4706  157.2362 C.3     1  UNL1        0.0609
     23 C         144.2180  140.2019  157.3533 C.3     1  UNL1        0.0375
     24 C         143.4467  139.9120  158.6067 C.3     1  UNL1        0.0940
     25 N         145.7808  141.7605  155.9827 N.3     1  UNL1       -0.2738
     26 C         147.0648  142.5325  156.0538 C.3     1  UNL1        0.0720
     27 C         147.8360  142.8224  154.8003 C.3     1  UNL1        0.0174
     28 C         147.3233  142.3402  153.4758 C.3     1  UNL1        0.0029
     29 C         146.0392  141.5681  153.4047 C.3     1  UNL1        0.0174
     30 C         145.2680  141.2782  154.6582 C.3     1  UNL1        0.0720
@<TRIPOS>BOND
     1    10    11    1
     2    11    12   ar
     3    12    13   ar
     4    13    14   ar
     5    14     1    1
     6     1     2   ar
     7     2     3   ar
     8     3     4   ar
     9     4     5   ar
    10     5    19    1
    11    19    20    1
    12    20    21    1
    13    21    22    1
    14    22    25    1
    15    25    26    1
    16    26    27    1
    17    27    28    1
    18    28    29    1
    19    29    30    1
    20    22    23    1
    21    23    24    1
    22     5     6   ar
    23     6     7   ar
    24     7     8   ar
    25     8     9   ar
    26    14    15   ar
    27    15    16   ar
    28    16    11   ar
    29     9     1   ar
    30     7     3   ar
    31    24    19    1
    32    30    25    1
    33    10    17    1
    34    10    18    1
@<TRIPOS>MOLECULE
*****
 30 34 0 0 0
SMALL
GASTEIGER

@<TRIPOS>ATOM
      1 C         140.9831  140.3099  165.6748 C.ar    1  UNL1        0.1010
      2 C         141.5997  139.3272  164.7241 C.ar    1  UNL1        0.0288
      3 C         141.2143  139.3430  163.2746 C.ar    1  UNL1        0.0528
      4 S         141.6508  138.5035  162.1107 S.2     1  UNL1       -0.0514
      5 C         140.9186  138.9832  160.8926 C.ar    1  UNL1        0.1631
      6 N         140.0295  140.1192  161.3037 N.ar    1  UNL1       -0.2225
      7 C         140.2122  140.3416  162.7758 C.ar    1  UNL1        0.1084
      8 C         139.5956  141.3243  163.7266 C.ar    1  UNL1        0.1185
      9 N         139.9810  141.3085  165.1761 N.ar    1  UNL1       -0.2407
     10 N         142.5248  140.2467  171.4731 N.pl3   1  UNL1       -0.3414
     11 C         142.1394  140.2625  170.0236 C.ar    1  UNL1        0.1448
     12 C         140.9339  141.0352  169.5764 C.ar    1  UNL1        0.1326
     13 N         140.5485  141.0510  168.1268 N.ar    1  UNL1       -0.2378
     14 C         141.3685  140.2941  167.1244 C.ar    1  UNL1        0.1181
     15 C         142.5739  139.5215  167.5716 C.ar    1  UNL1        0.1209
     16 N         142.9594  139.5056  169.0211 N.ar    1  UNL1       -0.2264
     17 H         141.9866  140.7434  172.1310 H       1  UNL1        0.1438
     18 H         143.3160  139.7395  171.7665 H       1  UNL1        0.1438
     19 N         141.0521  138.4250  159.5067 N.pl3   1  UNL1       -0.2881
     20 C         139.8506  138.3420  158.6126 C.3     1  UNL1        0.0940
     21 C         139.9841  137.7838  157.2268 C.3     1  UNL1        0.0375
     22 C         141.3191  137.3085  156.7351 C.3     1  UNL1        0.0609
     23 C         142.5206  137.3914  157.6292 C.3     1  UNL1        0.0375
     24 C         142.3871  137.9497  159.0150 C.3     1  UNL1        0.0940
     25 N         141.4525  136.7502  155.3492 N.3     1  UNL1       -0.2738
     26 C         141.8285  137.6514  154.2106 C.3     1  UNL1        0.0720
     27 C         141.9620  137.0932  152.8248 C.3     1  UNL1        0.0174
     28 C         141.7195  135.6337  152.5776 C.3     1  UNL1        0.0029
     29 C         141.3436  134.7325  153.7162 C.3     1  UNL1        0.0174
     30 C         141.2101  135.2908  155.1020 C.3     1  UNL1        0.0720
@<TRIPOS>BOND
     1    10    11    1
     2    11    12   ar
     3    12    13   ar
     4    13    14   ar
     5    14     1    1
     6     1     2   ar
     7     2     3   ar
     8     3     4   ar
     9     4     5   ar
    10     5    19    1
    11    19    20    1
    12    20    21    1
    13    21    22    1
    14    22    25    1
    15    25    26    1
    16    26    27    1
    17    27    28    1
    18    28    29    1
    19    29    30    1
    20    22    23    1
    21    23    24    1
    22     5     6   ar
    23     6     7   ar
    24     7     8   ar
    25     8     9   ar
    26    14    15   ar
    27    15    16   ar
    28    16    11   ar
    29     9     1   ar
    30     7     3   ar
    31    24    19    1
    32    30    25    1
    33    10    17    1
    34    10    18    1
