@<TRIPOS>MOLECULE
*****
 30 33 0 0 0
SMALL
GASTEIGER

@<TRIPOS>ATOM
      1 C         140.9101  139.5882  166.5194 C.ar    1  UNL1        0.1851
      2 C         142.3626  139.2193  166.4556 C.ar    1  UNL1        0.0435
      3 C         142.9384  138.6558  165.1904 C.ar    1  UNL1        0.0391
      4 C         142.0617  138.4610  163.9890 C.ar    1  UNL1        0.1504
      5 N         140.6092  138.8299  164.0528 N.ar    1  UNL1       -0.1317
      6 N         140.0334  139.3935  165.3180 N.ar    1  UNL1       -0.1273
      7 C         139.9644  141.5630  169.7243 C.ar    1  UNL1        0.0931
      8 C         138.9317  140.4751  169.7389 C.ar    1  UNL1        0.1266
      9 N         139.1603  139.6030  168.5401 N.ar    1  UNL1       -0.1619
     10 N         140.3342  140.1518  167.7846 N.ar    1  UNL1       -0.2088
     11 C         140.8312  141.3631  168.5165 C.ar    1  UNL1        0.1082
     12 N         139.9972  144.0929  170.3147 N.am    1  UNL1       -0.3252
     13 C         140.1055  142.6583  170.7394 C.2     1  UNL1        0.2458
     14 O         140.3549  142.3192  172.1791 O.2     1  UNL1       -0.2703
     15 H         140.0898  144.8118  170.9809 H       1  UNL1        0.1453
     16 H         139.8336  144.3155  169.3698 H       1  UNL1        0.1453
     17 N         142.6376  137.8974  162.7237 N.pl3   1  UNL1       -0.3164
     18 H         142.2225  137.1108  162.3016 H       1  UNL1        0.1483
     19 C         143.8458  138.5323  162.1017 C.3     1  UNL1        0.0938
     20 C         143.6822  139.6597  161.1258 C.3     1  UNL1        0.0556
     21 C         143.3907  138.6729  160.0345 C.3     1  UNL1        0.0073
     22 C         143.2270  139.8003  159.0588 C.3     1  UNL1        0.0009
     23 C         143.5185  140.7871  160.1501 C.3     1  UNL1        0.0073
     24 C         143.9737  140.6466  162.2172 C.ar    1  UNL1        0.0872
     25 N         145.3678  140.7811  162.7540 N.ar    1  UNL1       -0.2459
     26 C         145.6593  141.7680  163.8454 C.ar    1  UNL1        0.0986
     27 C         144.5566  142.6203  164.4000 C.ar    1  UNL1        0.0230
     28 C         143.1625  142.4858  163.8632 C.ar    1  UNL1        0.0325
     29 C         142.8710  141.4990  162.7718 C.ar    1  UNL1        0.1536
     30 F         141.4768  141.3645  162.2350 F       1  UNL1       -0.2029
@<TRIPOS>BOND
     1    12    13   am
     2    13    14    2
     3    13     7    1
     4     7     8   ar
     5     8     9   ar
     6     9    10   ar
     7    10     1    1
     8     1     2   ar
     9     2     3   ar
    10     3     4   ar
    11     4    17    1
    12    17    19    1
    13    19    20    1
    14    20    24    1
    15    24    25   ar
    16    25    26   ar
    17    26    27   ar
    18    27    28   ar
    19    28    29   ar
    20    29    30    1
    21    20    21    1
    22    21    22    1
    23    22    23    1
    24     4     5   ar
    25     5     6   ar
    26    10    11   ar
    27    11     7   ar
    28     6     1   ar
    29    23    20    1
    30    29    24   ar
    31    12    15    1
    32    12    16    1
    33    17    18    1
@<TRIPOS>MOLECULE
*****
 30 33 0 0 0
SMALL
GASTEIGER

@<TRIPOS>ATOM
      1 C         142.1445  140.9373  166.1610 C.ar    1  UNL1        0.1851
      2 C         142.8188  142.2526  165.9055 C.ar    1  UNL1        0.0435
      3 C         142.9372  142.7750  164.5044 C.ar    1  UNL1        0.0391
      4 C         142.3814  141.9822  163.3589 C.ar    1  UNL1        0.1504
      5 N         141.7071  140.6669  163.6143 N.ar    1  UNL1       -0.1317
      6 N         141.5887  140.1445  165.0154 N.ar    1  UNL1       -0.1273
      7 C         141.2642  140.0707  169.8406 C.ar    1  UNL1        0.0931
      8 C         142.4235  139.1508  169.5956 C.ar    1  UNL1        0.1266
      9 N         142.8943  139.3635  168.1874 N.ar    1  UNL1       -0.1619
     10 N         142.0261  140.4148  167.5621 N.ar    1  UNL1       -0.2088
     11 C         141.0186  140.8519  168.5838 C.ar    1  UNL1        0.1082
     12 N         139.6195  139.0538  171.5758 N.am    1  UNL1       -0.3252
     13 C         140.4870  140.1887  171.1181 C.2     1  UNL1        0.2458
     14 O         140.5772  141.4415  171.9380 O.2     1  UNL1       -0.2703
     15 H         139.1094  139.1312  172.4142 H       1  UNL1        0.1453
     16 H         139.5602  138.2315  171.0377 H       1  UNL1        0.1453
     17 N         142.4999  142.5046  161.9577 N.pl3   1  UNL1       -0.3164
     18 H         143.3850  142.7270  161.5885 H       1  UNL1        0.1483
     19 C         141.2697  142.6884  161.1193 C.3     1  UNL1        0.0938
     20 C         140.8274  144.0674  160.7286 C.3     1  UNL1        0.0556
     21 C         141.7883  144.0495  159.5770 C.3     1  UNL1        0.0073
     22 C         141.3460  145.4285  159.1864 C.3     1  UNL1        0.0009
     23 C         140.3851  145.4465  160.3380 C.3     1  UNL1        0.0073
     24 C         139.8665  144.0854  161.8802 C.ar    1  UNL1        0.0872
     25 N         138.5691  143.3384  161.7862 N.ar    1  UNL1       -0.2459
     26 C         137.6082  143.3564  162.9380 C.ar    1  UNL1        0.0986
     27 C         137.9446  144.1214  164.1836 C.ar    1  UNL1        0.0230
     28 C         139.2420  144.8684  164.2775 C.ar    1  UNL1        0.0325
     29 C         140.2029  144.8504  163.1259 C.ar    1  UNL1        0.1536
     30 F         141.5003  145.5974  163.2199 F       1  UNL1       -0.2029
@<TRIPOS>BOND
     1    12    13   am
     2    13    14    2
     3    13     7    1
     4     7     8   ar
     5     8     9   ar
     6     9    10   ar
     7    10     1    1
     8     1     2   ar
     9     2     3   ar
    10     3     4   ar
    11     4    17    1
    12    17    19    1
    13    19    20    1
    14    20    24    1
    15    24    25   ar
    16    25    26   ar
    17    26    27   ar
    18    27    28   ar
    19    28    29   ar
    20    29    30    1
    21    20    21    1
    22    21    22    1
    23    22    23    1
    24     4     5   ar
    25     5     6   ar
    26    10    11   ar
    27    11     7   ar
    28     6     1   ar
    29    23    20    1
    30    29    24   ar
    31    12    15    1
    32    12    16    1
    33    17    18    1
@<TRIPOS>MOLECULE
*****
 30 33 0 0 0
SMALL
GASTEIGER

@<TRIPOS>ATOM
      1 C         139.8542  140.4936  166.2154 C.ar    1  UNL1        0.1851
      2 C         140.6775  141.4966  165.4631 C.ar    1  UNL1        0.0435
      3 C         140.8789  141.3437  163.9846 C.ar    1  UNL1        0.0391
      4 C         140.2570  140.1878  163.2584 C.ar    1  UNL1        0.1504
      5 N         139.4336  139.1849  164.0108 N.ar    1  UNL1       -0.1317
      6 N         139.2322  139.3378  165.4893 N.ar    1  UNL1       -0.1273
      7 C         139.7115  141.5345  169.9520 C.ar    1  UNL1        0.0931
      8 C         138.9739  140.2288  169.9865 C.ar    1  UNL1        0.1266
      9 N         138.9375  139.6800  168.5910 N.ar    1  UNL1       -0.1619
     10 N         139.6527  140.6465  167.6940 N.ar    1  UNL1       -0.2088
     11 C         140.1310  141.7926  168.5352 C.ar    1  UNL1        0.1082
     12 N         138.9550  143.4298  171.5600 N.am    1  UNL1       -0.3252
     13 C         139.9821  142.4256  171.1279 C.2     1  UNL1        0.2458
     14 O         141.2797  142.3124  171.8718 O.2     1  UNL1       -0.2703
     15 H         139.1326  144.0146  172.3318 H       1  UNL1        0.1453
     16 H         138.1033  143.5040  171.0718 H       1  UNL1        0.1453
     17 N         140.4584  140.0350  161.7799 N.pl3   1  UNL1       -0.3164
     18 H         139.7224  139.7075  161.2140 H       1  UNL1        0.1483
     19 C         141.7814  140.3811  161.1634 C.3     1  UNL1        0.0938
     20 C         142.8070  139.3100  160.9380 C.3     1  UNL1        0.0556
     21 C         141.8976  138.6481  159.9456 C.3     1  UNL1        0.0073
     22 C         142.9232  137.5770  159.7201 C.3     1  UNL1        0.0009
     23 C         143.8326  138.2389  160.7125 C.3     1  UNL1        0.0073
     24 C         143.7164  139.9719  161.9303 C.ar    1  UNL1        0.0872
     25 N         144.4838  141.2005  161.5412 N.ar    1  UNL1       -0.2459
     26 C         145.3933  141.8624  162.5336 C.ar    1  UNL1        0.0986
     27 C         145.5352  141.2957  163.9151 C.ar    1  UNL1        0.0230
     28 C         144.7678  140.0670  164.3043 C.ar    1  UNL1        0.0325
     29 C         143.8584  139.4051  163.3119 C.ar    1  UNL1        0.1536
     30 F         143.0909  138.1765  163.7010 F       1  UNL1       -0.2029
@<TRIPOS>BOND
     1    12    13   am
     2    13    14    2
     3    13     7    1
     4     7     8   ar
     5     8     9   ar
     6     9    10   ar
     7    10     1    1
     8     1     2   ar
     9     2     3   ar
    10     3     4   ar
    11     4    17    1
    12    17    19    1
    13    19    20    1
    14    20    24    1
    15    24    25   ar
    16    25    26   ar
    17    26    27   ar
    18    27    28   ar
    19    28    29   ar
    20    29    30    1
    21    20    21    1
    22    21    22    1
    23    22    23    1
    24     4     5   ar
    25     5     6   ar
    26    10    11   ar
    27    11     7   ar
    28     6     1   ar
    29    23    20    1
    30    29    24   ar
    31    12    15    1
    32    12    16    1
    33    17    18    1
@<TRIPOS>MOLECULE
*****
 30 33 0 0 0
SMALL
GASTEIGER

@<TRIPOS>ATOM
      1 C         140.0907  141.3941  165.8646 C.ar    1  UNL1        0.1851
      2 C         138.8252  141.8802  165.2226 C.ar    1  UNL1        0.0435
      3 C         138.7604  142.0611  163.7350 C.ar    1  UNL1        0.0391
      4 C         139.9611  141.7558  162.8893 C.ar    1  UNL1        0.1504
      5 N         141.2265  141.2696  163.5313 N.ar    1  UNL1       -0.1317
      6 N         141.2914  141.0888  165.0189 N.ar    1  UNL1       -0.1273
      7 C         140.6642  141.5609  169.6998 C.ar    1  UNL1        0.0931
      8 C         139.8466  140.3087  169.5832 C.ar    1  UNL1        0.1266
      9 N         139.5322  140.0939  168.1324 N.ar    1  UNL1       -0.1619
     10 N         140.1556  141.2132  167.3523 N.ar    1  UNL1       -0.2088
     11 C         140.8552  142.1199  168.3210 C.ar    1  UNL1        0.1082
     12 N         142.5890  142.7085  171.0145 N.am    1  UNL1       -0.3252
     13 C         141.1973  142.1506  170.9719 C.2     1  UNL1        0.2458
     14 O         140.3386  142.1824  172.2014 O.2     1  UNL1       -0.2703
     15 H         142.9388  143.0955  171.8494 H       1  UNL1        0.1453
     16 H         143.1526  142.6876  170.2075 H       1  UNL1        0.1453
     17 N         139.8962  141.9367  161.4017 N.pl3   1  UNL1       -0.3164
     18 H         139.0817  141.6832  160.9100 H       1  UNL1        0.1483
     19 C         141.0722  142.5036  160.6631 C.3     1  UNL1        0.0938
     20 C         141.0671  143.9415  160.2355 C.3     1  UNL1        0.0556
     21 C         140.2400  143.5822  159.0369 C.3     1  UNL1        0.0073
     22 C         140.2350  145.0200  158.6094 C.3     1  UNL1        0.0009
     23 C         141.0621  145.3792  159.8081 C.3     1  UNL1        0.0073
     24 C         141.8942  144.3007  161.4342 C.ar    1  UNL1        0.0872
     25 N         143.3555  143.9638  161.4655 N.ar    1  UNL1       -0.2459
     26 C         144.1826  144.3231  162.6642 C.ar    1  UNL1        0.0986
     27 C         143.5483  145.0193  163.8316 C.ar    1  UNL1        0.0230
     28 C         142.0870  145.3563  163.8004 C.ar    1  UNL1        0.0325
     29 C         141.2599  144.9970  162.6017 C.ar    1  UNL1        0.1536
     30 F         139.7986  145.3340  162.5705 F       1  UNL1       -0.2029
@<TRIPOS>BOND
     1    12    13   am
     2    13    14    2
     3    13     7    1
     4     7     8   ar
     5     8     9   ar
     6     9    10   ar
     7    10     1    1
     8     1     2   ar
     9     2     3   ar
    10     3     4   ar
    11     4    17    1
    12    17    19    1
    13    19    20    1
    14    20    24    1
    15    24    25   ar
    16    25    26   ar
    17    26    27   ar
    18    27    28   ar
    19    28    29   ar
    20    29    30    1
    21    20    21    1
    22    21    22    1
    23    22    23    1
    24     4     5   ar
    25     5     6   ar
    26    10    11   ar
    27    11     7   ar
    28     6     1   ar
    29    23    20    1
    30    29    24   ar
    31    12    15    1
    32    12    16    1
    33    17    18    1
@<TRIPOS>MOLECULE
*****
 30 33 0 0 0
SMALL
GASTEIGER

@<TRIPOS>ATOM
      1 C         139.6171  143.2917  161.1813 C.ar    1  UNL1        0.1851
      2 C         140.5017  142.6180  162.1880 C.ar    1  UNL1        0.0435
      3 C         139.8953  141.8243  163.3070 C.ar    1  UNL1        0.0391
      4 C         138.4043  141.7044  163.4194 C.ar    1  UNL1        0.1504
      5 N         137.5197  142.3781  162.4126 N.ar    1  UNL1       -0.1317
      6 N         138.1261  143.1718  161.2936 N.ar    1  UNL1       -0.1273
      7 C         140.6219  145.0604  157.8755 C.ar    1  UNL1        0.0931
      8 C         141.6914  145.5533  158.8046 C.ar    1  UNL1        0.1266
      9 N         141.4452  144.9507  160.1560 N.ar    1  UNL1       -0.1619
     10 N         140.2235  144.0854  160.0621 N.ar    1  UNL1       -0.2088
     11 C         139.7147  144.1532  158.6527 C.ar    1  UNL1        0.1082
     12 N         140.5059  146.8502  155.9958 N.am    1  UNL1       -0.3252
     13 C         140.4838  145.4128  156.4240 C.2     1  UNL1        0.2458
     14 O         140.3236  144.3278  155.4007 O.2     1  UNL1       -0.2703
     15 H         140.4153  147.0815  155.0432 H       1  UNL1        0.1453
     16 H         140.6111  147.5623  156.6674 H       1  UNL1        0.1453
     17 N         137.7979  140.9106  164.5385 N.pl3   1  UNL1       -0.3164
     18 H         136.8215  140.9035  164.6642 H       1  UNL1        0.1483
     19 C         138.6792  140.1278  165.4661 C.3     1  UNL1        0.0938
     20 C         138.4617  138.6540  165.6418 C.3     1  UNL1        0.0556
     21 C         137.6396  138.9215  166.8675 C.3     1  UNL1        0.0073
     22 C         137.4221  137.4478  167.0432 C.3     1  UNL1        0.0009
     23 C         138.2443  137.1804  165.8175 C.3     1  UNL1        0.0073
     24 C         139.2839  138.3866  164.4161 C.ar    1  UNL1        0.0872
     25 N         138.6135  138.2233  163.0842 N.ar    1  UNL1       -0.2459
     26 C         139.4357  137.9559  161.8584 C.ar    1  UNL1        0.0986
     27 C         140.9283  137.8517  161.9645 C.ar    1  UNL1        0.0230
     28 C         141.5987  138.0150  163.2964 C.ar    1  UNL1        0.0325
     29 C         140.7766  138.2825  164.5221 C.ar    1  UNL1        0.1536
     30 F         141.4470  138.4457  165.8540 F       1  UNL1       -0.2029
@<TRIPOS>BOND
     1    12    13   am
     2    13    14    2
     3    13     7    1
     4     7     8   ar
     5     8     9   ar
     6     9    10   ar
     7    10     1    1
     8     1     2   ar
     9     2     3   ar
    10     3     4   ar
    11     4    17    1
    12    17    19    1
    13    19    20    1
    14    20    24    1
    15    24    25   ar
    16    25    26   ar
    17    26    27   ar
    18    27    28   ar
    19    28    29   ar
    20    29    30    1
    21    20    21    1
    22    21    22    1
    23    22    23    1
    24     4     5   ar
    25     5     6   ar
    26    10    11   ar
    27    11     7   ar
    28     6     1   ar
    29    23    20    1
    30    29    24   ar
    31    12    15    1
    32    12    16    1
    33    17    18    1
@<TRIPOS>MOLECULE
*****
 30 33 0 0 0
SMALL
GASTEIGER

@<TRIPOS>ATOM
      1 C         142.9652  142.4932  165.8666 C.ar    1  UNL1        0.1851
      2 C         144.2595  142.8094  165.1776 C.ar    1  UNL1        0.0435
      3 C         144.2507  143.3794  163.7902 C.ar    1  UNL1        0.0391
      4 C         142.9476  143.6333  163.0919 C.ar    1  UNL1        0.1504
      5 N         141.6534  143.3172  163.7809 N.ar    1  UNL1       -0.1317
      6 N         141.6622  142.7471  165.1683 N.ar    1  UNL1       -0.1273
      7 C         142.6434  140.4287  169.1377 C.ar    1  UNL1        0.0931
      8 C         143.3313  141.6632  169.6406 C.ar    1  UNL1        0.1266
      9 N         143.5356  142.5868  168.4765 N.ar    1  UNL1       -0.1619
     10 N         142.9739  141.9231  167.2541 N.ar    1  UNL1       -0.2088
     11 C         142.4226  140.5894  167.6628 C.ar    1  UNL1        0.1082
     12 N         140.9435  139.2480  170.7081 N.am    1  UNL1       -0.3252
     13 C         142.2462  139.2419  169.9646 C.2     1  UNL1        0.2458
     14 O         143.1516  138.0489  170.0479 O.2     1  UNL1       -0.2703
     15 H         140.6827  138.4691  171.2508 H       1  UNL1        0.1453
     16 H         140.3492  140.0310  170.6534 H       1  UNL1        0.1453
     17 N         142.9389  144.2034  161.7044 N.pl3   1  UNL1       -0.3164
     18 H         143.4245  145.0380  161.5120 H       1  UNL1        0.1483
     19 C         142.1903  143.5020  160.6101 C.3     1  UNL1        0.0938
     20 C         141.2909  144.2819  159.6974 C.3     1  UNL1        0.0556
     21 C         142.3698  144.3072  158.6556 C.3     1  UNL1        0.0073
     22 C         141.4704  145.0871  157.7431 C.3     1  UNL1        0.0009
     23 C         140.3915  145.0618  158.7848 C.3     1  UNL1        0.0073
     24 C         140.2120  144.2567  160.7392 C.ar    1  UNL1        0.0872
     25 N         140.0346  145.4245  161.6636 N.ar    1  UNL1       -0.2459
     26 C         138.9556  145.3992  162.7054 C.ar    1  UNL1        0.0986
     27 C         138.0541  144.2061  162.8227 C.ar    1  UNL1        0.0230
     28 C         138.2316  143.0382  161.8982 C.ar    1  UNL1        0.0325
     29 C         139.3105  143.0635  160.8565 C.ar    1  UNL1        0.1536
     30 F         139.4879  141.8957  159.9320 F       1  UNL1       -0.2029
@<TRIPOS>BOND
     1    12    13   am
     2    13    14    2
     3    13     7    1
     4     7     8   ar
     5     8     9   ar
     6     9    10   ar
     7    10     1    1
     8     1     2   ar
     9     2     3   ar
    10     3     4   ar
    11     4    17    1
    12    17    19    1
    13    19    20    1
    14    20    24    1
    15    24    25   ar
    16    25    26   ar
    17    26    27   ar
    18    27    28   ar
    19    28    29   ar
    20    29    30    1
    21    20    21    1
    22    21    22    1
    23    22    23    1
    24     4     5   ar
    25     5     6   ar
    26    10    11   ar
    27    11     7   ar
    28     6     1   ar
    29    23    20    1
    30    29    24   ar
    31    12    15    1
    32    12    16    1
    33    17    18    1
@<TRIPOS>MOLECULE
*****
 30 33 0 0 0
SMALL
GASTEIGER

@<TRIPOS>ATOM
      1 C         141.0128  144.4532  161.3638 C.ar    1  UNL1        0.1851
      2 C         139.9998  145.0960  162.2641 C.ar    1  UNL1        0.0435
      3 C         139.8624  144.6383  163.6859 C.ar    1  UNL1        0.0391
      4 C         140.7381  143.5377  164.2074 C.ar    1  UNL1        0.1504
      5 N         141.7511  142.8949  163.3072 N.ar    1  UNL1       -0.1317
      6 N         141.8885  143.3527  161.8853 N.ar    1  UNL1       -0.1273
      7 C         140.6500  145.8520  157.7614 C.ar    1  UNL1        0.0931
      8 C         142.0733  145.3784  157.7465 C.ar    1  UNL1        0.1266
      9 N         142.3824  144.7968  159.0941 N.ar    1  UNL1       -0.1619
     10 N         141.1502  144.9109  159.9419 N.ar    1  UNL1       -0.2088
     11 C         140.0795  145.5630  159.1182 C.ar    1  UNL1        0.1082
     12 N         139.1911  147.7913  156.8338 N.am    1  UNL1       -0.3252
     13 C         139.9246  146.5006  156.6198 C.2     1  UNL1        0.2458
     14 O         139.9328  145.8584  155.2642 O.2     1  UNL1       -0.2703
     15 H         138.7150  148.2170  156.0846 H       1  UNL1        0.1453
     16 H         139.1857  148.2128  157.7235 H       1  UNL1        0.1453
     17 N         140.6007  143.0800  165.6293 N.pl3   1  UNL1       -0.3164
     18 H         140.1826  143.6694  166.2979 H       1  UNL1        0.1483
     19 C         141.1003  141.7244  166.0324 C.3     1  UNL1        0.0938
     20 C         140.3546  140.9252  167.0598 C.3     1  UNL1        0.0556
     21 C         139.5692  140.2574  165.9703 C.3     1  UNL1        0.0073
     22 C         138.8236  139.4583  166.9976 C.3     1  UNL1        0.0009
     23 C         139.6091  140.1260  168.0871 C.3     1  UNL1        0.0073
     24 C         141.1401  141.5930  168.1493 C.ar    1  UNL1        0.0872
     25 N         140.5947  142.8158  168.8255 N.ar    1  UNL1       -0.2459
     26 C         141.3803  143.4836  169.9151 C.ar    1  UNL1        0.0986
     27 C         142.7111  142.9286  170.3283 C.ar    1  UNL1        0.0230
     28 C         143.2564  141.7057  169.6521 C.ar    1  UNL1        0.0325
     29 C         142.4710  141.0380  168.5626 C.ar    1  UNL1        0.1536
     30 F         143.0164  139.8151  167.8863 F       1  UNL1       -0.2029
@<TRIPOS>BOND
     1    12    13   am
     2    13    14    2
     3    13     7    1
     4     7     8   ar
     5     8     9   ar
     6     9    10   ar
     7    10     1    1
     8     1     2   ar
     9     2     3   ar
    10     3     4   ar
    11     4    17    1
    12    17    19    1
    13    19    20    1
    14    20    24    1
    15    24    25   ar
    16    25    26   ar
    17    26    27   ar
    18    27    28   ar
    19    28    29   ar
    20    29    30    1
    21    20    21    1
    22    21    22    1
    23    22    23    1
    24     4     5   ar
    25     5     6   ar
    26    10    11   ar
    27    11     7   ar
    28     6     1   ar
    29    23    20    1
    30    29    24   ar
    31    12    15    1
    32    12    16    1
    33    17    18    1
@<TRIPOS>MOLECULE
*****
 30 33 0 0 0
SMALL
GASTEIGER

@<TRIPOS>ATOM
      1 C         141.3941  144.4424  160.6498 C.ar    1  UNL1        0.1851
      2 C         140.1526  143.8908  161.2856 C.ar    1  UNL1        0.0435
      3 C         140.2221  143.2636  162.6464 C.ar    1  UNL1        0.0391
      4 C         141.5331  143.1881  163.3714 C.ar    1  UNL1        0.1504
      5 N         142.7746  143.7397  162.7356 N.ar    1  UNL1       -0.1317
      6 N         142.7051  144.3669  161.3748 N.ar    1  UNL1       -0.1273
      7 C         140.4807  146.1418  157.2818 C.ar    1  UNL1        0.0931
      8 C         141.9552  145.9278  157.1080 C.ar    1  UNL1        0.1266
      9 N         142.4768  145.2651  158.3484 N.ar    1  UNL1       -0.1619
     10 N         141.3247  145.0696  159.2890 N.ar    1  UNL1       -0.2088
     11 C         140.0911  145.6115  158.6298 C.ar    1  UNL1        0.1082
     12 N         138.8404  148.0469  156.6260 N.am    1  UNL1       -0.3252
     13 C         139.5579  146.7751  156.2831 C.2     1  UNL1        0.2458
     14 O         139.3525  146.1364  154.9415 O.2     1  UNL1       -0.2703
     15 H         138.2347  148.4625  155.9705 H       1  UNL1        0.1453
     16 H         138.9752  148.4661  157.5066 H       1  UNL1        0.1453
     17 N         141.6025  142.5608  164.7322 N.pl3   1  UNL1       -0.3164
     18 H         142.4481  142.5710  165.2364 H       1  UNL1        0.1483
     19 C         140.3837  141.9182  165.3249 C.3     1  UNL1        0.0938
     20 C         140.4699  141.2314  166.6558 C.3     1  UNL1        0.0556
     21 C         140.3675  142.5586  167.3473 C.3     1  UNL1        0.0073
     22 C         140.4537  141.8718  168.6780 C.3     1  UNL1        0.0009
     23 C         140.5561  140.5447  167.9865 C.3     1  UNL1        0.0073
     24 C         140.5723  139.9043  165.9643 C.ar    1  UNL1        0.0872
     25 N         141.9160  139.3629  165.5754 N.ar    1  UNL1       -0.2459
     26 C         142.0184  138.0357  164.8839 C.ar    1  UNL1        0.0986
     27 C         140.7770  137.2500  164.5813 C.ar    1  UNL1        0.0230
     28 C         139.4333  137.7914  164.9701 C.ar    1  UNL1        0.0325
     29 C         139.3309  139.1185  165.6616 C.ar    1  UNL1        0.1536
     30 F         137.9871  139.6599  166.0505 F       1  UNL1       -0.2029
@<TRIPOS>BOND
     1    12    13   am
     2    13    14    2
     3    13     7    1
     4     7     8   ar
     5     8     9   ar
     6     9    10   ar
     7    10     1    1
     8     1     2   ar
     9     2     3   ar
    10     3     4   ar
    11     4    17    1
    12    17    19    1
    13    19    20    1
    14    20    24    1
    15    24    25   ar
    16    25    26   ar
    17    26    27   ar
    18    27    28   ar
    19    28    29   ar
    20    29    30    1
    21    20    21    1
    22    21    22    1
    23    22    23    1
    24     4     5   ar
    25     5     6   ar
    26    10    11   ar
    27    11     7   ar
    28     6     1   ar
    29    23    20    1
    30    29    24   ar
    31    12    15    1
    32    12    16    1
    33    17    18    1
@<TRIPOS>MOLECULE
*****
 30 33 0 0 0
SMALL
GASTEIGER

@<TRIPOS>ATOM
      1 C         143.0351  141.0640  166.6147 C.ar    1  UNL1        0.1851
      2 C         142.6754  139.6200  166.4267 C.ar    1  UNL1        0.0435
      3 C         143.0828  138.9027  165.1739 C.ar    1  UNL1        0.0391
      4 C         143.8498  139.6294  164.1092 C.ar    1  UNL1        0.1504
      5 N         144.2094  141.0734  164.2973 N.ar    1  UNL1       -0.1317
      6 N         143.8021  141.7907  165.5500 N.ar    1  UNL1       -0.1273
      7 C         141.2883  142.8887  169.5618 C.ar    1  UNL1        0.0931
      8 C         142.7137  142.8818  170.0291 C.ar    1  UNL1        0.1266
      9 N         143.5415  142.1975  168.9820 N.ar    1  UNL1       -0.1619
     10 N         142.6277  141.7814  167.8676 N.ar    1  UNL1       -0.2088
     11 C         141.2352  142.2085  168.2259 C.ar    1  UNL1        0.1082
     12 N         139.9372  144.9607  170.3564 N.am    1  UNL1       -0.3252
     13 C         140.1210  143.4730  170.3006 C.2     1  UNL1        0.2458
     14 O         139.1374  142.5697  170.9838 O.2     1  UNL1       -0.2703
     15 H         139.1711  145.3442  170.8413 H       1  UNL1        0.1453
     16 H         140.5828  145.5535  169.9080 H       1  UNL1        0.1453
     17 N         144.2571  138.9120  162.8563 N.pl3   1  UNL1       -0.3164
     18 H         145.1901  138.9561  162.5451 H       1  UNL1        0.1483
     19 C         143.2430  138.1276  162.0778 C.3     1  UNL1        0.0938
     20 C         142.4748  138.7857  160.9702 C.3     1  UNL1        0.0556
     21 C         143.6967  138.7490  160.1009 C.3     1  UNL1        0.0073
     22 C         142.9285  139.4072  158.9933 C.3     1  UNL1        0.0009
     23 C         141.7067  139.4439  159.8626 C.3     1  UNL1        0.0073
     24 C         141.2530  138.8225  161.8394 C.ar    1  UNL1        0.0872
     25 N         140.4620  137.5699  162.0747 N.ar    1  UNL1       -0.2459
     26 C         139.2401  137.6067  162.9441 C.ar    1  UNL1        0.0986
     27 C         138.8092  138.8960  163.5781 C.ar    1  UNL1        0.0230
     28 C         139.6002  140.1486  163.3428 C.ar    1  UNL1        0.0325
     29 C         140.8221  140.1118  162.4735 C.ar    1  UNL1        0.1536
     30 F         141.6131  141.3644  162.2382 F       1  UNL1       -0.2029
@<TRIPOS>BOND
     1    12    13   am
     2    13    14    2
     3    13     7    1
     4     7     8   ar
     5     8     9   ar
     6     9    10   ar
     7    10     1    1
     8     1     2   ar
     9     2     3   ar
    10     3     4   ar
    11     4    17    1
    12    17    19    1
    13    19    20    1
    14    20    24    1
    15    24    25   ar
    16    25    26   ar
    17    26    27   ar
    18    27    28   ar
    19    28    29   ar
    20    29    30    1
    21    20    21    1
    22    21    22    1
    23    22    23    1
    24     4     5   ar
    25     5     6   ar
    26    10    11   ar
    27    11     7   ar
    28     6     1   ar
    29    23    20    1
    30    29    24   ar
    31    12    15    1
    32    12    16    1
    33    17    18    1
