@<TRIPOS>MOLECULE
*****
 38 43 0 0 0
SMALL
GASTEIGER

@<TRIPOS>ATOM
      1 C         140.0513  139.2304  164.7991 C.2     1  UNL1       -0.0155
      2 C         139.4227  137.8856  164.5839 C.2     1  UNL1       -0.0023
      3 C         138.8564  137.5287  163.2416 C.2     1  UNL1        0.0203
      4 C         138.9187  138.5165  162.1145 C.2     1  UNL1        0.1007
      5 N         138.4477  138.4472  160.6920 N.2     1  UNL1       -0.1482
      6 N         138.7853  139.7493  160.0281 N.2     1  UNL1       -0.1467
      7 C         139.4649  140.6232  161.0403 C.2     1  UNL1        0.1199
      8 C         139.5473  139.8613  162.3297 C.2     1  UNL1        0.0225
      9 C         140.1136  140.2182  163.6720 C.3     1  UNL1        0.0559
     10 C         141.7502  140.3014  168.8262 C.ar    1  UNL1        0.0667
     11 C         140.3549  140.7178  168.4660 C.ar    1  UNL1        0.0160
     12 C         139.7885  140.3607  167.1237 C.ar    1  UNL1        0.0032
     13 C         140.6176  139.5874  166.1415 C.ar    1  UNL1        0.0239
     14 C         142.0129  139.1711  166.5016 C.ar    1  UNL1        0.1411
     15 F         142.8420  138.3978  165.5194 F       1  UNL1       -0.2041
     16 C         142.5792  139.5281  167.8439 C.ar    1  UNL1        0.0454
     17 N         142.3165  140.6584  170.1685 N.pl3   1  UNL1       -0.2186
     18 H         142.5050  139.9514  170.8271 H       1  UNL1        0.1734
     19 C         142.8749  143.5271  170.8461 C.3     1  UNL1        0.1996
     20 S         142.5957  142.0927  170.5073 S.O2    1  UNL1        0.0558
     21 O         143.6106  142.1556  169.4045 O.2     1  UNL1       -0.1544
     22 O         141.5809  142.0298  171.6100 O.2     1  UNL1       -0.1544
     23 C         139.9728  142.0147  160.8045 C.ar    1  UNL1        0.1226
     24 C         139.0920  143.0325  160.1425 C.ar    1  UNL1        0.1198
     25 N         139.5999  144.4240  159.9066 N.ar    1  UNL1       -0.2358
     26 C         140.9886  144.7978  160.3327 C.ar    1  UNL1        0.1564
     27 C         141.8695  143.7800  160.9947 C.ar    1  UNL1        0.2447
     28 N         141.3615  142.3885  161.2306 N.ar    1  UNL1       -0.2072
     29 O         143.2583  144.1538  161.4209 O.3     1  UNL1       -0.4615
     30 C         144.0660  143.2074  162.2587 C.3     1  UNL1        0.1830
     31 C         144.6191  141.9526  161.6506 C.3     1  UNL1        0.1127
     32 N         145.4268  141.0061  162.4884 N.3     1  UNL1       -0.2945
     33 C         145.6815  141.3144  163.9342 C.3     1  UNL1        0.0688
     34 C         145.1283  142.5692  164.5421 C.3     1  UNL1        0.0206
     35 C         144.3206  143.5156  163.7044 C.3     1  UNL1        0.0396
     36 C         143.5349  144.7866  163.5717 C.3     1  UNL1        0.0037
     37 C         144.1483  144.4181  164.8900 C.3     1  UNL1        0.0037
     38 H         146.3392  140.9214  162.0403 H       1  UNL1        0.1234
@<TRIPOS>BOND
     1    19    20    1
     2    20    21    2
     3    20    22    2
     4    20    17    1
     5    17    10    1
     6    10    11   ar
     7    11    12   ar
     8    12    13   ar
     9    13     1    1
    10     1     2    2
    11     2     3    1
    12     3     4    2
    13     4     5    1
    14     5     6    2
    15     6     7    1
    16     7    23    1
    17    23    24   ar
    18    24    25   ar
    19    25    26   ar
    20    26    27   ar
    21    27    29    1
    22    30    29    1
    23    30    31    1
    24    31    32    1
    25    32    33    1
    26    33    34    1
    27    34    35    1
    28    35    36    1
    29    36    37    1
    30    27    28   ar
    31     7     8    2
    32     8     9    1
    33    13    14   ar
    34    14    15    1
    35    14    16   ar
    36    16    10   ar
    37     9     1    1
    38     8     4    1
    39    28    23   ar
    40    35    30    1
    41    37    35    1
    42    17    18    1
    43    32    38    1
@<TRIPOS>MOLECULE
*****
 38 43 0 0 0
SMALL
GASTEIGER

@<TRIPOS>ATOM
      1 C         139.7864  143.1210  164.2226 C.2     1  UNL1       -0.0155
      2 C         138.9456  144.3625  164.1845 C.2     1  UNL1       -0.0023
      3 C         138.8782  145.1845  162.9316 C.2     1  UNL1        0.0203
      4 C         139.6516  144.7649  161.7168 C.2     1  UNL1        0.1007
      5 N         139.7794  145.3696  160.3500 N.2     1  UNL1       -0.1482
      6 N         140.6993  144.5018  159.5434 N.2     1  UNL1       -0.1467
      7 C         141.1400  143.3608  160.4117 C.2     1  UNL1        0.1199
      8 C         140.4925  143.5234  161.7549 C.2     1  UNL1        0.0225
      9 C         140.5599  142.7014  163.0078 C.3     1  UNL1        0.0559
     10 C         139.9887  140.6549  167.9813 C.ar    1  UNL1        0.0667
     11 C         140.4621  142.0782  167.9918 C.ar    1  UNL1        0.0160
     12 C         140.3947  142.9002  166.7388 C.ar    1  UNL1        0.0032
     13 C         139.8539  142.2990  165.4755 C.ar    1  UNL1        0.0239
     14 C         139.3805  140.8756  165.4651 C.ar    1  UNL1        0.1411
     15 F         138.8397  140.2744  164.2017 F       1  UNL1       -0.2041
     16 C         139.4479  140.0536  166.7179 C.ar    1  UNL1        0.0454
     17 N         140.0561  139.8328  169.2342 N.pl3   1  UNL1       -0.2186
     18 H         139.3367  139.1941  169.4431 H       1  UNL1        0.1734
     19 C         142.3833  140.1352  171.1031 C.3     1  UNL1        0.1996
     20 S         141.2197  139.9840  170.1686 S.O2    1  UNL1        0.0558
     21 O         140.3133  140.5892  171.1993 O.2     1  UNL1       -0.1544
     22 O         142.1260  139.3789  169.1380 O.2     1  UNL1       -0.1544
     23 C         142.0657  142.2518  160.0077 C.ar    1  UNL1        0.1226
     24 C         142.4758  142.1024  158.5726 C.ar    1  UNL1        0.1198
     25 N         143.4014  140.9934  158.1686 N.ar    1  UNL1       -0.2358
     26 C         143.9171  140.0337  159.1996 C.ar    1  UNL1        0.1564
     27 C         143.5070  140.1831  160.6347 C.ar    1  UNL1        0.2447
     28 N         142.5813  141.2921  161.0387 N.ar    1  UNL1       -0.2072
     29 O         144.0227  139.2234  161.6659 O.3     1  UNL1       -0.4615
     30 C         143.0663  138.5321  162.5918 C.3     1  UNL1        0.1830
     31 C         141.9919  137.6456  162.0352 C.3     1  UNL1        0.1127
     32 N         141.0354  136.9544  162.9611 N.3     1  UNL1       -0.2945
     33 C         141.1534  137.1495  164.4437 C.3     1  UNL1        0.0688
     34 C         142.2278  138.0359  165.0003 C.3     1  UNL1        0.0206
     35 C         143.1842  138.7272  164.0744 C.3     1  UNL1        0.0396
     36 C         144.3568  139.6382  163.8611 C.3     1  UNL1        0.0037
     37 C         143.8727  139.3517  165.2517 C.3     1  UNL1        0.0037
     38 H         141.1289  135.9536  162.7875 H       1  UNL1        0.1234
@<TRIPOS>BOND
     1    19    20    1
     2    20    21    2
     3    20    22    2
     4    20    17    1
     5    17    10    1
     6    10    11   ar
     7    11    12   ar
     8    12    13   ar
     9    13     1    1
    10     1     2    2
    11     2     3    1
    12     3     4    2
    13     4     5    1
    14     5     6    2
    15     6     7    1
    16     7    23    1
    17    23    24   ar
    18    24    25   ar
    19    25    26   ar
    20    26    27   ar
    21    27    29    1
    22    30    29    1
    23    30    31    1
    24    31    32    1
    25    32    33    1
    26    33    34    1
    27    34    35    1
    28    35    36    1
    29    36    37    1
    30    27    28   ar
    31     7     8    2
    32     8     9    1
    33    13    14   ar
    34    14    15    1
    35    14    16   ar
    36    16    10   ar
    37     9     1    1
    38     8     4    1
    39    28    23   ar
    40    35    30    1
    41    37    35    1
    42    17    18    1
    43    32    38    1
@<TRIPOS>MOLECULE
*****
 38 43 0 0 0
SMALL
GASTEIGER

@<TRIPOS>ATOM
      1 C         139.8232  139.3865  163.5977 C.2     1  UNL1       -0.0155
      2 C         138.8927  138.2419  163.3255 C.2     1  UNL1       -0.0023
      3 C         138.0988  138.2070  162.0533 C.2     1  UNL1        0.0203
      4 C         138.2354  139.3166  161.0533 C.2     1  UNL1        0.1007
      5 N         137.5868  139.5530  159.7215 N.2     1  UNL1       -0.1482
      6 N         138.1165  140.8437  159.1706 N.2     1  UNL1       -0.1467
      7 C         139.0924  141.4050  160.1619 C.2     1  UNL1        0.1199
      8 C         139.1658  140.4612  161.3255 C.2     1  UNL1        0.0225
      9 C         139.9597  140.4962  162.5976 C.3     1  UNL1        0.0559
     10 C         142.2049  139.4915  167.4143 C.ar    1  UNL1        0.0667
     11 C         142.7066  138.7067  166.2385 C.ar    1  UNL1        0.0160
     12 C         141.9127  138.6718  164.9663 C.ar    1  UNL1        0.0032
     13 C         140.6171  139.4215  164.8699 C.ar    1  UNL1        0.0239
     14 C         140.1154  140.2063  166.0457 C.ar    1  UNL1        0.1411
     15 F         138.8198  140.9561  165.9492 F       1  UNL1       -0.2041
     16 C         140.9093  140.2413  167.3178 C.ar    1  UNL1        0.0454
     17 N         142.9988  139.5265  168.6865 N.pl3   1  UNL1       -0.2186
     18 H         143.8590  139.0510  168.7432 H       1  UNL1        0.1734
     19 C         141.9653  141.0456  171.0581 C.3     1  UNL1        0.1996
     20 S         142.4821  140.2860  169.8723 S.O2    1  UNL1        0.0558
     21 O         143.3365  141.4591  169.4932 O.2     1  UNL1       -0.1544
     22 O         141.6276  139.1130  170.2513 O.2     1  UNL1       -0.1544
     23 C         139.8600  142.6853  160.0154 C.ar    1  UNL1        0.1226
     24 C         139.5812  143.5988  158.8588 C.ar    1  UNL1        0.1198
     25 N         140.3489  144.8792  158.7123 N.ar    1  UNL1       -0.2358
     26 C         141.3953  145.2460  159.7223 C.ar    1  UNL1        0.1564
     27 C         141.6741  144.3325  160.8790 C.ar    1  UNL1        0.2447
     28 N         140.9065  143.0522  161.0255 N.ar    1  UNL1       -0.2072
     29 O         142.7207  144.6994  161.8891 O.3     1  UNL1       -0.4615
     30 C         143.6307  143.6437  162.4435 C.3     1  UNL1        0.1830
     31 C         144.7481  143.1000  161.6032 C.3     1  UNL1        0.1127
     32 N         145.6581  142.0443  162.1576 N.3     1  UNL1       -0.2945
     33 C         145.4508  141.5321  163.5522 C.3     1  UNL1        0.0688
     34 C         144.3334  142.0758  164.3923 C.3     1  UNL1        0.0206
     35 C         143.4234  143.1315  163.8380 C.3     1  UNL1        0.0396
     36 C         142.2528  144.0550  164.0030 C.3     1  UNL1        0.0037
     37 C         142.6585  143.1498  165.1282 C.3     1  UNL1        0.0037
     38 H         146.6047  142.4224  162.1204 H       1  UNL1        0.1234
@<TRIPOS>BOND
     1    19    20    1
     2    20    21    2
     3    20    22    2
     4    20    17    1
     5    17    10    1
     6    10    11   ar
     7    11    12   ar
     8    12    13   ar
     9    13     1    1
    10     1     2    2
    11     2     3    1
    12     3     4    2
    13     4     5    1
    14     5     6    2
    15     6     7    1
    16     7    23    1
    17    23    24   ar
    18    24    25   ar
    19    25    26   ar
    20    26    27   ar
    21    27    29    1
    22    30    29    1
    23    30    31    1
    24    31    32    1
    25    32    33    1
    26    33    34    1
    27    34    35    1
    28    35    36    1
    29    36    37    1
    30    27    28   ar
    31     7     8    2
    32     8     9    1
    33    13    14   ar
    34    14    15    1
    35    14    16   ar
    36    16    10   ar
    37     9     1    1
    38     8     4    1
    39    28    23   ar
    40    35    30    1
    41    37    35    1
    42    17    18    1
    43    32    38    1
@<TRIPOS>MOLECULE
*****
 38 43 0 0 0
SMALL
GASTEIGER

@<TRIPOS>ATOM
      1 C         140.8254  143.7233  164.0185 C.2     1  UNL1       -0.0155
      2 C         140.8029  145.2048  163.7849 C.2     1  UNL1       -0.0023
      3 C         140.5303  145.7435  162.4118 C.2     1  UNL1        0.0203
      4 C         140.2800  144.8007  161.2723 C.2     1  UNL1        0.1007
      5 N         139.9859  145.0367  159.8204 N.2     1  UNL1       -0.1482
      6 N         139.8266  143.7010  159.1567 N.2     1  UNL1       -0.1467
      7 C         140.0222  142.6395  160.1984 C.2     1  UNL1        0.1199
      8 C         140.3024  143.3192  161.5059 C.2     1  UNL1        0.0225
      9 C         140.5751  142.7805  162.8789 C.3     1  UNL1        0.0559
     10 C         141.6436  142.1069  168.1378 C.ar    1  UNL1        0.0667
     11 C         140.3175  142.7364  167.8288 C.ar    1  UNL1        0.0160
     12 C         140.0448  143.2752  166.4557 C.ar    1  UNL1        0.0032
     13 C         141.0981  143.1845  165.3916 C.ar    1  UNL1        0.0239
     14 C         142.4241  142.5550  165.7006 C.ar    1  UNL1        0.1411
     15 F         143.4774  142.4643  164.6364 F       1  UNL1       -0.2041
     16 C         142.6969  142.0162  167.0736 C.ar    1  UNL1        0.0454
     17 N         141.9163  141.5681  169.5108 N.pl3   1  UNL1       -0.2186
     18 H         141.8694  142.1652  170.2922 H       1  UNL1        0.1734
     19 C         142.6046  138.6710  169.8759 C.3     1  UNL1        0.1996
     20 S         142.2605  140.1196  169.6934 S.O2    1  UNL1        0.0558
     21 O         143.6125  140.5066  170.2150 O.2     1  UNL1       -0.1544
     22 O         140.9084  139.7327  169.1717 O.2     1  UNL1       -0.1544
     23 C         139.9503  141.1584  159.9723 C.ar    1  UNL1        0.1226
     24 C         139.0180  140.6022  158.9372 C.ar    1  UNL1        0.1198
     25 N         138.9460  139.1211  158.7111 N.ar    1  UNL1       -0.2358
     26 C         139.8064  138.1962  159.5200 C.ar    1  UNL1        0.1564
     27 C         140.7387  138.7524  160.5550 C.ar    1  UNL1        0.2447
     28 N         140.8106  140.2335  160.7812 N.ar    1  UNL1       -0.2072
     29 O         141.5991  137.8275  161.3640 O.3     1  UNL1       -0.4615
     30 C         142.6191  138.3878  162.3104 C.3     1  UNL1        0.1830
     31 C         143.8322  139.0898  161.7760 C.3     1  UNL1        0.1127
     32 N         144.8522  139.6501  162.7224 N.3     1  UNL1       -0.2945
     33 C         144.6592  139.5084  164.2032 C.3     1  UNL1        0.0688
     34 C         143.4461  138.8064  164.7375 C.3     1  UNL1        0.0206
     35 C         142.4261  138.2461  163.7912 C.3     1  UNL1        0.0396
     36 C         141.1367  137.5173  163.5533 C.3     1  UNL1        0.0037
     37 C         141.6142  137.7590  164.9546 C.3     1  UNL1        0.0037
     38 H         144.9166  140.6493  162.5281 H       1  UNL1        0.1234
@<TRIPOS>BOND
     1    19    20    1
     2    20    21    2
     3    20    22    2
     4    20    17    1
     5    17    10    1
     6    10    11   ar
     7    11    12   ar
     8    12    13   ar
     9    13     1    1
    10     1     2    2
    11     2     3    1
    12     3     4    2
    13     4     5    1
    14     5     6    2
    15     6     7    1
    16     7    23    1
    17    23    24   ar
    18    24    25   ar
    19    25    26   ar
    20    26    27   ar
    21    27    29    1
    22    30    29    1
    23    30    31    1
    24    31    32    1
    25    32    33    1
    26    33    34    1
    27    34    35    1
    28    35    36    1
    29    36    37    1
    30    27    28   ar
    31     7     8    2
    32     8     9    1
    33    13    14   ar
    34    14    15    1
    35    14    16   ar
    36    16    10   ar
    37     9     1    1
    38     8     4    1
    39    28    23   ar
    40    35    30    1
    41    37    35    1
    42    17    18    1
    43    32    38    1
@<TRIPOS>MOLECULE
*****
 38 43 0 0 0
SMALL
GASTEIGER

@<TRIPOS>ATOM
      1 C         141.1442  143.8146  163.6186 C.2     1  UNL1       -0.0155
      2 C         141.0893  145.3067  163.4753 C.2     1  UNL1       -0.0023
      3 C         140.6611  145.9200  162.1751 C.2     1  UNL1        0.0203
      4 C         140.2878  145.0412  161.0183 C.2     1  UNL1        0.1007
      5 N         139.8306  145.3565  159.6248 N.2     1  UNL1       -0.1482
      6 N         139.6030  144.0593  158.9069 N.2     1  UNL1       -0.1467
      7 C         139.9195  142.9422  159.8567 C.2     1  UNL1        0.1199
      8 C         140.3426  143.5491  161.1616 C.2     1  UNL1        0.0225
      9 C         140.7709  142.9358  162.4617 C.3     1  UNL1        0.0559
     10 C         142.4289  141.9745  167.5191 C.ar    1  UNL1        0.0667
     11 C         143.4596  142.4614  166.5441 C.ar    1  UNL1        0.0160
     12 C         143.0313  143.0747  165.2439 C.ar    1  UNL1        0.0032
     13 C         141.5725  143.2012  164.9188 C.ar    1  UNL1        0.0239
     14 C         140.5418  142.7143  165.8938 C.ar    1  UNL1        0.1411
     15 F         139.0829  142.8408  165.5686 F       1  UNL1       -0.2041
     16 C         140.9700  142.1010  167.1939 C.ar    1  UNL1        0.0454
     17 N         142.8571  141.3611  168.8192 N.pl3   1  UNL1       -0.2186
     18 H         143.6777  140.8187  168.8610 H       1  UNL1        0.1734
     19 C         141.2131  141.7873  171.2922 C.3     1  UNL1        0.1996
     20 S         142.0351  141.5742  170.0557 S.O2    1  UNL1        0.0558
     21 O         142.5134  142.9940  170.1290 O.2     1  UNL1       -0.1544
     22 O         141.5569  140.1544  169.9824 O.2     1  UNL1       -0.1544
     23 C         139.8287  141.4758  159.5547 C.ar    1  UNL1        0.1226
     24 C         139.8513  141.0002  158.1322 C.ar    1  UNL1        0.1198
     25 N         139.7605  139.5337  157.8302 N.ar    1  UNL1       -0.2358
     26 C         139.6471  138.5428  158.9505 C.ar    1  UNL1        0.1564
     27 C         139.6245  139.0184  160.3729 C.ar    1  UNL1        0.2447
     28 N         139.7153  140.4848  160.6750 N.ar    1  UNL1       -0.2072
     29 O         139.5111  138.0274  161.4934 O.3     1  UNL1       -0.4615
     30 C         139.2167  138.5005  162.8861 C.3     1  UNL1        0.1830
     31 C         138.0862  139.4557  163.1304 C.3     1  UNL1        0.1127
     32 N         137.7918  139.9287  164.5231 N.3     1  UNL1       -0.2945
     33 C         138.6279  139.4466  165.6715 C.3     1  UNL1        0.0688
     34 C         139.7583  138.4914  165.4270 C.3     1  UNL1        0.0206
     35 C         140.0527  138.0184  164.0344 C.3     1  UNL1        0.0396
     36 C         140.8754  137.1938  163.0891 C.3     1  UNL1        0.0037
     37 C         141.1881  137.1886  164.5562 C.3     1  UNL1        0.0037
     38 H         136.8288  139.6615  164.7274 H       1  UNL1        0.1234
@<TRIPOS>BOND
     1    19    20    1
     2    20    21    2
     3    20    22    2
     4    20    17    1
     5    17    10    1
     6    10    11   ar
     7    11    12   ar
     8    12    13   ar
     9    13     1    1
    10     1     2    2
    11     2     3    1
    12     3     4    2
    13     4     5    1
    14     5     6    2
    15     6     7    1
    16     7    23    1
    17    23    24   ar
    18    24    25   ar
    19    25    26   ar
    20    26    27   ar
    21    27    29    1
    22    30    29    1
    23    30    31    1
    24    31    32    1
    25    32    33    1
    26    33    34    1
    27    34    35    1
    28    35    36    1
    29    36    37    1
    30    27    28   ar
    31     7     8    2
    32     8     9    1
    33    13    14   ar
    34    14    15    1
    35    14    16   ar
    36    16    10   ar
    37     9     1    1
    38     8     4    1
    39    28    23   ar
    40    35    30    1
    41    37    35    1
    42    17    18    1
    43    32    38    1
@<TRIPOS>MOLECULE
*****
 38 43 0 0 0
SMALL
GASTEIGER

@<TRIPOS>ATOM
      1 C         143.3377  142.1242  163.7642 C.2     1  UNL1       -0.0155
      2 C         144.4111  142.9925  164.3504 C.2     1  UNL1       -0.0023
      3 C         144.4629  143.2242  165.8314 C.2     1  UNL1        0.0203
      4 C         143.4413  142.5876  166.7263 C.2     1  UNL1        0.1007
      5 N         143.2405  142.6337  168.2122 N.2     1  UNL1       -0.1482
      6 N         142.0429  141.7937  168.5443 N.2     1  UNL1       -0.1467
      7 C         141.5035  141.2286  167.2637 C.2     1  UNL1        0.1199
      8 C         142.3678  141.7193  166.1402 C.2     1  UNL1        0.0225
      9 C         142.3160  141.4875  164.6592 C.3     1  UNL1        0.0559
     10 C         143.1822  141.4288  159.3209 C.ar    1  UNL1        0.0667
     11 C         142.3838  142.5406  159.9344 C.ar    1  UNL1        0.0160
     12 C         142.4356  142.7724  161.4156 C.ar    1  UNL1        0.0032
     13 C         143.2859  141.8924  162.2831 C.ar    1  UNL1        0.0239
     14 C         144.0843  140.7806  161.6696 C.ar    1  UNL1        0.1411
     15 F         144.9346  139.9006  162.5372 F       1  UNL1       -0.2041
     16 C         144.0325  140.5488  160.1885 C.ar    1  UNL1        0.0454
     17 N         143.1304  141.1970  157.8399 N.pl3   1  UNL1       -0.2186
     18 H         142.2615  141.1127  157.3849 H       1  UNL1        0.1734
     19 C         145.6749  140.9906  156.2641 C.3     1  UNL1        0.1996
     20 S         144.4027  141.0938  157.0520 S.O2    1  UNL1        0.0558
     21 O         144.6317  142.5656  157.2291 O.2     1  UNL1       -0.1544
     22 O         144.1736  139.6221  156.8749 O.2     1  UNL1       -0.1544
     23 C         140.3096  140.3305  167.1302 C.ar    1  UNL1        0.1226
     24 C         139.4424  140.0534  168.3223 C.ar    1  UNL1        0.1198
     25 N         138.2484  139.1553  168.1887 N.ar    1  UNL1       -0.2358
     26 C         137.9216  138.5343  166.8630 C.ar    1  UNL1        0.1564
     27 C         138.7888  138.8114  165.6709 C.ar    1  UNL1        0.2447
     28 N         139.9827  139.7095  165.8045 N.ar    1  UNL1       -0.2072
     29 O         138.4620  138.1904  164.3451 O.3     1  UNL1       -0.4615
     30 C         139.5013  138.1381  163.2648 C.3     1  UNL1        0.1830
     31 C         140.6630  137.1970  163.3867 C.3     1  UNL1        0.1127
     32 N         141.7023  137.1447  162.3064 N.3     1  UNL1       -0.2945
     33 C         141.5800  138.0334  161.1042 C.3     1  UNL1        0.0688
     34 C         140.4183  138.9745  160.9824 C.3     1  UNL1        0.0206
     35 C         139.3790  139.0268  162.0627 C.3     1  UNL1        0.0396
     36 C         138.1082  139.6004  162.6161 C.3     1  UNL1        0.0037
     37 C         138.6377  140.0833  161.2983 C.3     1  UNL1        0.0037
     38 H         141.7212  136.1847  161.9622 H       1  UNL1        0.1234
@<TRIPOS>BOND
     1    19    20    1
     2    20    21    2
     3    20    22    2
     4    20    17    1
     5    17    10    1
     6    10    11   ar
     7    11    12   ar
     8    12    13   ar
     9    13     1    1
    10     1     2    2
    11     2     3    1
    12     3     4    2
    13     4     5    1
    14     5     6    2
    15     6     7    1
    16     7    23    1
    17    23    24   ar
    18    24    25   ar
    19    25    26   ar
    20    26    27   ar
    21    27    29    1
    22    30    29    1
    23    30    31    1
    24    31    32    1
    25    32    33    1
    26    33    34    1
    27    34    35    1
    28    35    36    1
    29    36    37    1
    30    27    28   ar
    31     7     8    2
    32     8     9    1
    33    13    14   ar
    34    14    15    1
    35    14    16   ar
    36    16    10   ar
    37     9     1    1
    38     8     4    1
    39    28    23   ar
    40    35    30    1
    41    37    35    1
    42    17    18    1
    43    32    38    1
@<TRIPOS>MOLECULE
*****
 38 43 0 0 0
SMALL
GASTEIGER

@<TRIPOS>ATOM
      1 C         139.5187  139.3359  163.6433 C.2     1  UNL1       -0.0155
      2 C         138.9979  138.0271  163.1279 C.2     1  UNL1       -0.0023
      3 C         138.5884  137.8965  161.6908 C.2     1  UNL1        0.0203
      4 C         138.6997  139.0747  160.7692 C.2     1  UNL1        0.1007
      5 N         138.3749  139.2454  159.3147 N.2     1  UNL1       -0.1482
      6 N         138.6951  140.6598  158.9312 N.2     1  UNL1       -0.1467
      7 C         139.2177  141.3632  160.1487 C.2     1  UNL1        0.1199
      8 C         139.2205  140.3835  161.2846 C.2     1  UNL1        0.0225
      9 C         139.6300  140.5141  162.7217 C.3     1  UNL1        0.0559
     10 C         140.7474  139.7278  167.9546 C.ar    1  UNL1        0.0667
     11 C         139.3065  139.8844  167.5682 C.ar    1  UNL1        0.0160
     12 C         138.8969  139.7538  166.1310 C.ar    1  UNL1        0.0032
     13 C         139.9283  139.4666  165.0804 C.ar    1  UNL1        0.0239
     14 C         141.3691  139.3099  165.4669 C.ar    1  UNL1        0.1411
     15 F         142.4005  139.0227  164.4161 F       1  UNL1       -0.2041
     16 C         141.7787  139.4406  166.9039 C.ar    1  UNL1        0.0454
     17 N         141.1570  139.8585  169.3916 N.pl3   1  UNL1       -0.2186
     18 H         141.6786  139.1429  169.8218 H       1  UNL1        0.1734
     19 C         140.3866  142.3004  170.9548 C.3     1  UNL1        0.1996
     20 S         140.7718  141.0794  170.1732 S.O2    1  UNL1        0.0558
     21 O         139.8837  140.2415  171.0445 O.2     1  UNL1       -0.1544
     22 O         141.6599  141.9173  169.3020 O.2     1  UNL1       -0.1544
     23 C         139.6598  142.7948  160.2181 C.ar    1  UNL1        0.1226
     24 C         139.5494  143.6734  159.0074 C.ar    1  UNL1        0.1198
     25 N         139.9915  145.1051  159.0768 N.ar    1  UNL1       -0.2358
     26 C         140.5441  145.6582  160.3569 C.ar    1  UNL1        0.1564
     27 C         140.6545  144.7796  161.5676 C.ar    1  UNL1        0.2447
     28 N         140.2124  143.3480  161.4982 N.ar    1  UNL1       -0.2072
     29 O         141.2071  145.3327  162.8478 O.3     1  UNL1       -0.4615
     30 C         142.0670  144.4736  163.7266 C.3     1  UNL1        0.1830
     31 C         143.5407  144.3720  163.4654 C.3     1  UNL1        0.1127
     32 N         144.4006  143.5129  164.3442 N.3     1  UNL1       -0.2945
     33 C         143.7870  142.7552  165.4842 C.3     1  UNL1        0.0688
     34 C         142.3134  142.8569  165.7454 C.3     1  UNL1        0.0206
     35 C         141.4535  143.7160  164.8666 C.3     1  UNL1        0.0396
     36 C         140.1061  144.2708  164.5100 C.3     1  UNL1        0.0037
     37 C         140.2484  143.3373  165.6756 C.3     1  UNL1        0.0037
     38 H         145.1132  144.1225  164.7454 H       1  UNL1        0.1234
@<TRIPOS>BOND
     1    19    20    1
     2    20    21    2
     3    20    22    2
     4    20    17    1
     5    17    10    1
     6    10    11   ar
     7    11    12   ar
     8    12    13   ar
     9    13     1    1
    10     1     2    2
    11     2     3    1
    12     3     4    2
    13     4     5    1
    14     5     6    2
    15     6     7    1
    16     7    23    1
    17    23    24   ar
    18    24    25   ar
    19    25    26   ar
    20    26    27   ar
    21    27    29    1
    22    30    29    1
    23    30    31    1
    24    31    32    1
    25    32    33    1
    26    33    34    1
    27    34    35    1
    28    35    36    1
    29    36    37    1
    30    27    28   ar
    31     7     8    2
    32     8     9    1
    33    13    14   ar
    34    14    15    1
    35    14    16   ar
    36    16    10   ar
    37     9     1    1
    38     8     4    1
    39    28    23   ar
    40    35    30    1
    41    37    35    1
    42    17    18    1
    43    32    38    1
@<TRIPOS>MOLECULE
*****
 38 43 0 0 0
SMALL
GASTEIGER

@<TRIPOS>ATOM
      1 C         142.8799  143.1355  163.7563 C.2     1  UNL1       -0.0155
      2 C         144.0557  143.8417  164.3634 C.2     1  UNL1       -0.0023
      3 C         144.3692  143.6612  165.8191 C.2     1  UNL1        0.0203
      4 C         143.5069  142.7744  166.6676 C.2     1  UNL1        0.1007
      5 N         143.5689  142.4066  168.1206 N.2     1  UNL1       -0.1482
      6 N         142.4314  141.4731  168.4114 N.2     1  UNL1       -0.1467
      7 C         141.6664  141.2639  167.1382 C.2     1  UNL1        0.1199
      8 C         142.3311  142.0682  166.0605 C.2     1  UNL1        0.0225
      9 C         142.0176  142.2487  164.6048 C.3     1  UNL1        0.0559
     10 C         141.9393  143.6770  159.3890 C.ar    1  UNL1        0.0667
     11 C         142.6769  142.4555  159.8515 C.ar    1  UNL1        0.0160
     12 C         142.9905  142.2750  161.3073 C.ar    1  UNL1        0.0032
     13 C         142.5663  143.3160  162.3005 C.ar    1  UNL1        0.0239
     14 C         141.8287  144.5374  161.8380 C.ar    1  UNL1        0.1411
     15 F         141.4046  145.5784  162.8313 F       1  UNL1       -0.2041
     16 C         141.5151  144.7180  160.3823 C.ar    1  UNL1        0.0454
     17 N         141.6257  143.8575  157.9334 N.pl3   1  UNL1       -0.2186
     18 H         141.9236  143.1854  157.2786 H       1  UNL1        0.1734
     19 C         140.0907  146.2668  157.0172 C.3     1  UNL1        0.1996
     20 S         140.8582  145.0621  157.4753 S.O2    1  UNL1        0.0558
     21 O         142.1420  145.8237  157.3273 O.2     1  UNL1       -0.1544
     22 O         139.5745  144.3005  157.6233 O.2     1  UNL1       -0.1544
     23 C         140.4502  140.4018  166.9718 C.ar    1  UNL1        0.1226
     24 C         139.5878  140.0847  168.1574 C.ar    1  UNL1        0.1198
     25 N         138.3716  139.2226  167.9911 N.ar    1  UNL1       -0.2358
     26 C         138.0178  138.6776  166.6392 C.ar    1  UNL1        0.1564
     27 C         138.8803  138.9946  165.4536 C.ar    1  UNL1        0.2447
     28 N         140.0964  139.8567  165.6199 N.ar    1  UNL1       -0.2072
     29 O         138.5265  138.4495  164.1015 O.3     1  UNL1       -0.4615
     30 C         139.5759  138.3520  163.0342 C.3     1  UNL1        0.1830
     31 C         140.6741  137.3371  163.1527 C.3     1  UNL1        0.1127
     32 N         141.7234  137.2395  162.0854 N.3     1  UNL1       -0.2945
     33 C         141.6747  138.1568  160.8994 C.3     1  UNL1        0.0688
     34 C         140.5765  139.1716  160.7810 C.3     1  UNL1        0.0206
     35 C         139.5272  139.2692  161.8483 C.3     1  UNL1        0.0396
     36 C         138.2872  139.9115  162.3962 C.3     1  UNL1        0.0037
     37 C         138.8650  140.3847  161.0953 C.3     1  UNL1        0.0037
     38 H         141.6867  136.2869  161.7225 H       1  UNL1        0.1234
@<TRIPOS>BOND
     1    19    20    1
     2    20    21    2
     3    20    22    2
     4    20    17    1
     5    17    10    1
     6    10    11   ar
     7    11    12   ar
     8    12    13   ar
     9    13     1    1
    10     1     2    2
    11     2     3    1
    12     3     4    2
    13     4     5    1
    14     5     6    2
    15     6     7    1
    16     7    23    1
    17    23    24   ar
    18    24    25   ar
    19    25    26   ar
    20    26    27   ar
    21    27    29    1
    22    30    29    1
    23    30    31    1
    24    31    32    1
    25    32    33    1
    26    33    34    1
    27    34    35    1
    28    35    36    1
    29    36    37    1
    30    27    28   ar
    31     7     8    2
    32     8     9    1
    33    13    14   ar
    34    14    15    1
    35    14    16   ar
    36    16    10   ar
    37     9     1    1
    38     8     4    1
    39    28    23   ar
    40    35    30    1
    41    37    35    1
    42    17    18    1
    43    32    38    1
@<TRIPOS>MOLECULE
*****
 38 43 0 0 0
SMALL
GASTEIGER

@<TRIPOS>ATOM
      1 C         140.4940  138.9774  164.3687 C.2     1  UNL1       -0.0155
      2 C         139.1879  138.2401  164.3935 C.2     1  UNL1       -0.0023
      3 C         138.5287  137.8389  163.1073 C.2     1  UNL1        0.0203
      4 C         139.1755  138.1749  161.7963 C.2     1  UNL1        0.1007
      5 N         138.7651  137.9111  160.3778 N.2     1  UNL1       -0.1482
      6 N         139.8175  138.4854  159.4764 N.2     1  UNL1       -0.1467
      7 C         140.8783  139.1041  160.3377 C.2     1  UNL1        0.1199
      8 C         140.4816  138.9121  161.7715 C.2     1  UNL1        0.0225
      9 C         141.1408  139.3134  163.0577 C.3     1  UNL1        0.0559
     10 C         142.4719  140.1813  168.2274 C.ar    1  UNL1        0.0667
     11 C         141.2085  140.8604  167.7884 C.ar    1  UNL1        0.0160
     12 C         140.5492  140.4591  166.5022 C.ar    1  UNL1        0.0032
     13 C         141.1533  139.3787  165.6550 C.ar    1  UNL1        0.0239
     14 C         142.4166  138.6996  166.0939 C.ar    1  UNL1        0.1411
     15 F         143.0207  137.6191  165.2466 F       1  UNL1       -0.2041
     16 C         143.0759  139.1009  167.3801 C.ar    1  UNL1        0.0454
     17 N         143.1311  140.5826  169.5135 N.pl3   1  UNL1       -0.2186
     18 H         143.7126  139.9456  169.9883 H       1  UNL1        0.1734
     19 C         142.6781  143.3263  170.6391 C.3     1  UNL1        0.1996
     20 S         142.9046  141.9544  170.0763 S.O2    1  UNL1        0.0558
     21 O         141.9733  141.3797  171.1022 O.2     1  UNL1       -0.1544
     22 O         143.8359  142.5290  169.0505 O.2     1  UNL1       -0.1544
     23 C         142.1182  139.7936  159.8508 C.ar    1  UNL1        0.1226
     24 C         142.7598  139.3635  158.5650 C.ar    1  UNL1        0.1198
     25 N         143.9997  140.0530  158.0780 N.ar    1  UNL1       -0.2358
     26 C         144.5981  141.1727  158.8769 C.ar    1  UNL1        0.1564
     27 C         143.9566  141.6028  160.1627 C.ar    1  UNL1        0.2447
     28 N         142.7166  140.9133  160.6496 N.ar    1  UNL1       -0.2072
     29 O         144.5550  142.7226  160.9616 O.3     1  UNL1       -0.4615
     30 C         143.7029  143.4964  161.9235 C.3     1  UNL1        0.1830
     31 C         142.6013  144.3755  161.4100 C.3     1  UNL1        0.1127
     32 N         141.7492  145.1492  162.3718 N.3     1  UNL1       -0.2945
     33 C         141.9987  145.0440  163.8473 C.3     1  UNL1        0.0688
     34 C         143.1003  144.1649  164.3607 C.3     1  UNL1        0.0206
     35 C         143.9524  143.3911  163.3988 C.3     1  UNL1        0.0396
     36 C         145.0804  142.4368  163.1399 C.3     1  UNL1        0.0037
     37 C         144.7325  142.8228  164.5471 C.3     1  UNL1        0.0037
     38 H         140.7855  144.8545  162.2144 H       1  UNL1        0.1234
@<TRIPOS>BOND
     1    19    20    1
     2    20    21    2
     3    20    22    2
     4    20    17    1
     5    17    10    1
     6    10    11   ar
     7    11    12   ar
     8    12    13   ar
     9    13     1    1
    10     1     2    2
    11     2     3    1
    12     3     4    2
    13     4     5    1
    14     5     6    2
    15     6     7    1
    16     7    23    1
    17    23    24   ar
    18    24    25   ar
    19    25    26   ar
    20    26    27   ar
    21    27    29    1
    22    30    29    1
    23    30    31    1
    24    31    32    1
    25    32    33    1
    26    33    34    1
    27    34    35    1
    28    35    36    1
    29    36    37    1
    30    27    28   ar
    31     7     8    2
    32     8     9    1
    33    13    14   ar
    34    14    15    1
    35    14    16   ar
    36    16    10   ar
    37     9     1    1
    38     8     4    1
    39    28    23   ar
    40    35    30    1
    41    37    35    1
    42    17    18    1
    43    32    38    1
