@<TRIPOS>MOLECULE
*****
 29 33 0 0 0
SMALL
GASTEIGER

@<TRIPOS>ATOM
      1 C         141.0376  139.6394  162.0738 C.ar    1  UNL1        0.0994
      2 C         142.0040  140.5453  162.7777 C.ar    1  UNL1        0.0207
      3 C         141.8444  140.8178  164.2441 C.ar    1  UNL1        0.0031
      4 C         140.7185  140.1845  165.0065 C.ar    1  UNL1        0.0174
      5 C         140.5590  140.4571  166.4729 C.ar    1  UNL1       -0.0027
      6 C         139.4331  139.8237  167.2353 C.ar    1  UNL1       -0.0207
      7 C         138.4668  138.9179  166.5313 C.ar    1  UNL1       -0.0027
      8 C         138.6263  138.6453  165.0650 C.ar    1  UNL1        0.0188
      9 C         139.7522  139.2786  164.3025 C.ar    1  UNL1        0.0813
     10 N         139.9118  139.0061  162.8362 N.ar    1  UNL1       -0.2438
     11 C         141.9953  138.4633  158.5010 C.ar    1  UNL1        0.1317
     12 N         142.1852  138.4232  159.9883 N.ar    1  UNL1       -0.2352
     13 C         141.1972  139.3669  160.6074 C.ar    1  UNL1        0.1060
     14 C         140.3966  139.9901  159.5025 C.ar    1  UNL1        0.0575
     15 S         140.8898  139.4317  158.2007 S.2     1  UNL1       -0.0643
     16 C         143.7764  134.4748  155.5345 C.3     1  UNL1        0.0754
     17 C         143.5928  135.8402  156.1275 C.ar    1  UNL1        0.1549
     18 C         142.6174  136.2093  157.2057 C.ar    1  UNL1        0.0601
     19 C         142.7741  137.6735  157.4911 C.ar    1  UNL1        0.1463
     20 N         143.8463  138.2094  156.5893 N.ar    1  UNL1       -0.0753
     21 O         144.3523  137.0764  155.7466 O.2     1  UNL1       -0.3577
     22 C         139.2736  140.0963  168.7017 C.3     1  UNL1        0.0437
     23 C         140.4366  139.9085  169.6303 C.3     1  UNL1        0.0768
     24 N         141.4650  140.9911  169.7727 N.3     1  UNL1       -0.2737
     25 C         142.9345  140.8518  169.5058 C.3     1  UNL1        0.0721
     26 C         143.5822  142.1777  169.7752 C.3     1  UNL1        0.0187
     27 C         142.5130  143.1364  170.2085 C.3     1  UNL1        0.0174
     28 C         141.2045  142.4030  170.2069 C.3     1  UNL1        0.0576
     29 C         139.8699  142.9803  170.5751 C.3     1  UNL1        0.0173
@<TRIPOS>BOND
     1    16    17    1
     2    17    18   ar
     3    18    19   ar
     4    19    11    1
     5    11    12   ar
     6    12    13   ar
     7    13     1    1
     8     1     2   ar
     9     2     3   ar
    10     3     4   ar
    11     4     5   ar
    12     5     6   ar
    13     6    22    1
    14    22    23    1
    15    23    24    1
    16    24    25    1
    17    25    26    1
    18    26    27    1
    19    27    28    1
    20    28    29    1
    21     6     7   ar
    22     7     8   ar
    23     8     9   ar
    24     9    10   ar
    25    13    14   ar
    26    14    15   ar
    27    19    20   ar
    28    20    21   ar
    29    21    17   ar
    30    15    11   ar
    31    10     1   ar
    32     9     4   ar
    33    28    24    1
@<TRIPOS>MOLECULE
*****
 29 33 0 0 0
SMALL
GASTEIGER

@<TRIPOS>ATOM
      1 C         142.8421  138.2961  160.0339 C.ar    1  UNL1        0.0994
      2 C         143.9830  139.1852  160.4314 C.ar    1  UNL1        0.0207
      3 C         144.2512  139.4577  161.8818 C.ar    1  UNL1        0.0031
      4 C         143.3787  138.8411  162.9347 C.ar    1  UNL1        0.0174
      5 C         143.6470  139.1137  164.3852 C.ar    1  UNL1       -0.0027
      6 C         142.7745  138.4971  165.4381 C.ar    1  UNL1       -0.0207
      7 C         141.6336  137.6081  165.0405 C.ar    1  UNL1       -0.0027
      8 C         141.3653  137.3356  163.5901 C.ar    1  UNL1        0.0188
      9 C         142.2379  137.9521  162.5372 C.ar    1  UNL1        0.0813
     10 N         141.9696  137.6796  161.0868 N.ar    1  UNL1       -0.2438
     11 C         142.3728  136.8911  156.4462 C.ar    1  UNL1        0.1317
     12 N         142.7590  136.7095  157.8843 N.ar    1  UNL1       -0.2352
     13 C         142.5738  138.0236  158.5834 C.ar    1  UNL1        0.1060
     14 C         142.0732  139.0174  157.5775 C.ar    1  UNL1        0.0575
     15 S         141.9489  138.3175  156.2567 S.2     1  UNL1       -0.0643
     16 C         142.8609  132.2285  154.0168 C.3     1  UNL1        0.0754
     17 C         142.6292  133.6891  154.2675 C.ar    1  UNL1        0.1549
     18 C         142.7069  134.3786  155.5974 C.ar    1  UNL1        0.0601
     19 C         142.4049  135.8323  155.3842 C.ar    1  UNL1        0.1463
     20 N         142.1405  136.0412  153.9226 N.ar    1  UNL1       -0.0753
     21 O         142.2791  134.7167  153.2324 O.2     1  UNL1       -0.3577
     22 C         143.0428  138.7696  166.8885 C.3     1  UNL1        0.0437
     23 C         142.6124  140.0703  167.4994 C.3     1  UNL1        0.0768
     24 N         141.4426  140.1076  168.4374 N.3     1  UNL1       -0.2737
     25 C         141.5121  140.0729  169.9354 C.3     1  UNL1        0.0721
     26 C         140.1103  140.1300  170.4660 C.3     1  UNL1        0.0187
     27 C         139.1743  140.2000  169.2959 C.3     1  UNL1        0.0174
     28 C         139.9977  140.1861  168.0422 C.3     1  UNL1        0.0576
     29 C         139.4690  140.2411  166.6395 C.3     1  UNL1        0.0173
@<TRIPOS>BOND
     1    16    17    1
     2    17    18   ar
     3    18    19   ar
     4    19    11    1
     5    11    12   ar
     6    12    13   ar
     7    13     1    1
     8     1     2   ar
     9     2     3   ar
    10     3     4   ar
    11     4     5   ar
    12     5     6   ar
    13     6    22    1
    14    22    23    1
    15    23    24    1
    16    24    25    1
    17    25    26    1
    18    26    27    1
    19    27    28    1
    20    28    29    1
    21     6     7   ar
    22     7     8   ar
    23     8     9   ar
    24     9    10   ar
    25    13    14   ar
    26    14    15   ar
    27    19    20   ar
    28    20    21   ar
    29    21    17   ar
    30    15    11   ar
    31    10     1   ar
    32     9     4   ar
    33    28    24    1
@<TRIPOS>MOLECULE
*****
 29 33 0 0 0
SMALL
GASTEIGER

@<TRIPOS>ATOM
      1 C         140.4346  144.2085  160.1009 C.ar    1  UNL1        0.0994
      2 C         141.5775  143.2912  160.4207 C.ar    1  UNL1        0.0207
      3 C         141.8166  142.8562  161.8361 C.ar    1  UNL1        0.0031
      4 C         140.9128  143.3385  162.9318 C.ar    1  UNL1        0.0174
      5 C         141.1519  142.9035  164.3473 C.ar    1  UNL1       -0.0027
      6 C         140.2482  143.3858  165.4430 C.ar    1  UNL1       -0.0207
      7 C         139.1052  144.3032  165.1232 C.ar    1  UNL1       -0.0027
      8 C         138.8661  144.7382  163.7077 C.ar    1  UNL1        0.0188
      9 C         139.7699  144.2558  162.6120 C.ar    1  UNL1        0.0813
     10 N         139.5308  144.6908  161.1966 N.ar    1  UNL1       -0.2438
     11 C         139.8186  146.0294  156.7289 C.ar    1  UNL1        0.1317
     12 N         140.0406  146.0585  158.2121 N.ar    1  UNL1       -0.2352
     13 C         140.1954  144.6436  158.6854 C.ar    1  UNL1        0.1060
     14 C         140.0691  143.7401  157.4947 C.ar    1  UNL1        0.0575
     15 S         139.8362  144.5965  156.2855 S.2     1  UNL1       -0.0643
     16 C         140.0420  149.3228  152.6077 C.3     1  UNL1        0.0754
     17 C         139.7174  148.7374  153.9500 C.ar    1  UNL1        0.1549
     18 C         140.1687  147.4016  154.4618 C.ar    1  UNL1        0.0601
     19 C         139.6147  147.2236  155.8443 C.ar    1  UNL1        0.1463
     20 N         138.8212  148.4495  156.1870 N.ar    1  UNL1       -0.0753
     21 O         138.8846  149.3851  155.0163 O.2     1  UNL1       -0.3577
     22 C         140.4873  142.9508  166.8585 C.3     1  UNL1        0.0437
     23 C         140.7807  141.5112  167.1613 C.3     1  UNL1        0.0768
     24 N         139.7218  140.4698  166.9519 N.3     1  UNL1       -0.2737
     25 C         139.3108  139.8827  165.6341 C.3     1  UNL1        0.0721
     26 C         138.2228  138.8826  165.8913 C.3     1  UNL1        0.0187
     27 C         137.9614  138.8516  167.3681 C.3     1  UNL1        0.0174
     28 C         138.8878  139.8325  168.0235 C.3     1  UNL1        0.0576
     29 C         138.9664  140.1247  169.4927 C.3     1  UNL1        0.0173
@<TRIPOS>BOND
     1    16    17    1
     2    17    18   ar
     3    18    19   ar
     4    19    11    1
     5    11    12   ar
     6    12    13   ar
     7    13     1    1
     8     1     2   ar
     9     2     3   ar
    10     3     4   ar
    11     4     5   ar
    12     5     6   ar
    13     6    22    1
    14    22    23    1
    15    23    24    1
    16    24    25    1
    17    25    26    1
    18    26    27    1
    19    27    28    1
    20    28    29    1
    21     6     7   ar
    22     7     8   ar
    23     8     9   ar
    24     9    10   ar
    25    13    14   ar
    26    14    15   ar
    27    19    20   ar
    28    20    21   ar
    29    21    17   ar
    30    15    11   ar
    31    10     1   ar
    32     9     4   ar
    33    28    24    1
@<TRIPOS>MOLECULE
*****
 29 33 0 0 0
SMALL
GASTEIGER

@<TRIPOS>ATOM
      1 C         141.1923  138.3865  159.5819 C.ar    1  UNL1        0.0994
      2 C         139.7058  138.5702  159.5018 C.ar    1  UNL1        0.0207
      3 C         138.8658  138.4354  160.7371 C.ar    1  UNL1        0.0031
      4 C         139.5124  138.1168  162.0526 C.ar    1  UNL1        0.0174
      5 C         138.6723  137.9820  163.2880 C.ar    1  UNL1       -0.0027
      6 C         139.3188  137.6634  164.6035 C.ar    1  UNL1       -0.0207
      7 C         140.8054  137.4796  164.6836 C.ar    1  UNL1       -0.0027
      8 C         141.6454  137.6144  163.4482 C.ar    1  UNL1        0.0188
      9 C         140.9989  137.9330  162.1327 C.ar    1  UNL1        0.0813
     10 N         141.8389  138.0679  160.8974 N.ar    1  UNL1       -0.2438
     11 C         143.6691  139.3244  156.7443 C.ar    1  UNL1        0.1317
     12 N         143.0828  139.5643  158.1040 N.ar    1  UNL1       -0.2352
     13 C         142.0324  138.5213  158.3465 C.ar    1  UNL1        0.1060
     14 C         141.9695  137.6368  157.1366 C.ar    1  UNL1        0.0575
     15 S         142.9810  138.1331  156.1464 S.2     1  UNL1       -0.0643
     16 C         147.4899  142.8824  155.9552 C.3     1  UNL1        0.0754
     17 C         146.5093  141.7692  155.7336 C.ar    1  UNL1        0.1549
     18 C         145.5328  141.2406  156.7420 C.ar    1  UNL1        0.0601
     19 C         144.7531  140.1337  156.0963 C.ar    1  UNL1        0.1463
     20 N         145.2478  139.9783  154.6888 N.ar    1  UNL1       -0.0753
     21 O         146.3332  140.9890  154.4646 O.2     1  UNL1       -0.3577
     22 C         138.4788  137.5285  165.8389 C.3     1  UNL1        0.0437
     23 C         138.0920  138.7495  166.6198 C.3     1  UNL1        0.0768
     24 N         139.0787  139.8634  166.8077 N.3     1  UNL1       -0.2737
     25 C         140.0856  139.9721  167.9143 C.3     1  UNL1        0.0721
     26 C         140.8611  141.2401  167.7126 C.3     1  UNL1        0.0187
     27 C         140.3335  141.9151  166.4812 C.3     1  UNL1        0.0174
     28 C         139.2320  141.0642  165.9220 C.3     1  UNL1        0.0576
     29 C         138.4254  141.3620  164.6930 C.3     1  UNL1        0.0173
@<TRIPOS>BOND
     1    16    17    1
     2    17    18   ar
     3    18    19   ar
     4    19    11    1
     5    11    12   ar
     6    12    13   ar
     7    13     1    1
     8     1     2   ar
     9     2     3   ar
    10     3     4   ar
    11     4     5   ar
    12     5     6   ar
    13     6    22    1
    14    22    23    1
    15    23    24    1
    16    24    25    1
    17    25    26    1
    18    26    27    1
    19    27    28    1
    20    28    29    1
    21     6     7   ar
    22     7     8   ar
    23     8     9   ar
    24     9    10   ar
    25    13    14   ar
    26    14    15   ar
    27    19    20   ar
    28    20    21   ar
    29    21    17   ar
    30    15    11   ar
    31    10     1   ar
    32     9     4   ar
    33    28    24    1
@<TRIPOS>MOLECULE
*****
 29 33 0 0 0
SMALL
GASTEIGER

@<TRIPOS>ATOM
      1 C         142.9161  138.5512  158.6468 C.ar    1  UNL1        0.0994
      2 C         143.2077  139.9615  158.2271 C.ar    1  UNL1        0.0207
      3 C         143.7563  140.9415  159.2213 C.ar    1  UNL1        0.0031
      4 C         144.0134  140.5113  160.6351 C.ar    1  UNL1        0.0174
      5 C         144.5621  141.4915  161.6293 C.ar    1  UNL1       -0.0027
      6 C         144.8192  141.0613  163.0431 C.ar    1  UNL1       -0.0207
      7 C         144.5276  139.6510  163.4627 C.ar    1  UNL1       -0.0027
      8 C         143.9790  138.6709  162.4686 C.ar    1  UNL1        0.0188
      9 C         143.7219  139.1011  161.0548 C.ar    1  UNL1        0.0813
     10 N         143.1732  138.1210  160.0606 N.ar    1  UNL1       -0.2438
     11 C         142.0635  135.5756  156.3049 C.ar    1  UNL1        0.1317
     12 N         142.9193  136.2067  157.3629 N.ar    1  UNL1       -0.2352
     13 C         142.3675  137.5710  157.6526 C.ar    1  UNL1        0.1060
     14 C         141.1707  137.7832  156.7736 C.ar    1  UNL1        0.0575
     15 S         140.9828  136.5500  155.9406 S.2     1  UNL1       -0.0643
     16 C         142.8473  131.6653  152.8443 C.3     1  UNL1        0.0754
     17 C         142.6151  132.4126  154.1240 C.ar    1  UNL1        0.1549
     18 C         142.4738  133.8993  154.2636 C.ar    1  UNL1        0.0601
     19 C         142.2549  134.2099  155.7146 C.ar    1  UNL1        0.1463
     20 N         142.2609  132.9151  156.4718 N.ar    1  UNL1       -0.0753
     21 O         142.4835  131.8043  155.4888 O.2     1  UNL1       -0.3577
     22 C         145.3678  142.0414  164.0373 C.3     1  UNL1        0.0437
     23 C         144.4422  142.7490  164.9821 C.3     1  UNL1        0.0768
     24 N         143.2896  143.5458  164.4469 N.3     1  UNL1       -0.2737
     25 C         143.3400  144.9755  163.9956 C.3     1  UNL1        0.0721
     26 C         141.9657  145.3661  163.5387 C.3     1  UNL1        0.0187
     27 C         141.0659  144.1779  163.7077 C.3     1  UNL1        0.0174
     28 C         141.8841  143.0529  164.2689 C.3     1  UNL1        0.0576
     29 C         141.3845  141.6767  164.5950 C.3     1  UNL1        0.0173
@<TRIPOS>BOND
     1    16    17    1
     2    17    18   ar
     3    18    19   ar
     4    19    11    1
     5    11    12   ar
     6    12    13   ar
     7    13     1    1
     8     1     2   ar
     9     2     3   ar
    10     3     4   ar
    11     4     5   ar
    12     5     6   ar
    13     6    22    1
    14    22    23    1
    15    23    24    1
    16    24    25    1
    17    25    26    1
    18    26    27    1
    19    27    28    1
    20    28    29    1
    21     6     7   ar
    22     7     8   ar
    23     8     9   ar
    24     9    10   ar
    25    13    14   ar
    26    14    15   ar
    27    19    20   ar
    28    20    21   ar
    29    21    17   ar
    30    15    11   ar
    31    10     1   ar
    32     9     4   ar
    33    28    24    1
@<TRIPOS>MOLECULE
*****
 29 33 0 0 0
SMALL
GASTEIGER

@<TRIPOS>ATOM
      1 C         142.6960  138.8456  159.6820 C.ar    1  UNL1        0.0994
      2 C         143.5961  138.6535  160.8665 C.ar    1  UNL1        0.0207
      3 C         143.0106  138.3263  162.2081 C.ar    1  UNL1        0.0031
      4 C         141.5250  138.1910  162.3653 C.ar    1  UNL1        0.0174
      5 C         140.9395  137.8637  163.7070 C.ar    1  UNL1       -0.0027
      6 C         139.4539  137.7284  163.8643 C.ar    1  UNL1       -0.0207
      7 C         138.5538  137.9205  162.6797 C.ar    1  UNL1       -0.0027
      8 C         139.1393  138.2478  161.3381 C.ar    1  UNL1        0.0188
      9 C         140.6249  138.3830  161.1809 C.ar    1  UNL1        0.0813
     10 N         141.2104  138.7103  159.8393 N.ar    1  UNL1       -0.2438
     11 C         144.6492  140.1666  156.5989 C.ar    1  UNL1        0.1317
     12 N         144.3809  140.1581  158.0747 N.ar    1  UNL1       -0.2352
     13 C         143.2815  139.1729  158.3403 C.ar    1  UNL1        0.1060
     14 C         142.8703  138.5724  157.0287 C.ar    1  UNL1        0.0575
     15 S         143.7156  139.1865  155.9524 S.2     1  UNL1       -0.0643
     16 C         147.7683  142.1839  152.8464 C.3     1  UNL1        0.0754
     17 C         147.1053  141.9347  154.1685 C.ar    1  UNL1        0.1549
     18 C         146.0467  140.9084  154.4444 C.ar    1  UNL1        0.0601
     19 C         145.6716  141.0074  155.8934 C.ar    1  UNL1        0.1463
     20 N         146.4984  142.0948  156.5130 N.ar    1  UNL1       -0.0753
     21 O         147.3844  142.6679  155.4470 O.2     1  UNL1       -0.3577
     22 C         138.8685  137.4012  165.2059 C.3     1  UNL1        0.0437
     23 C         138.2870  138.4913  166.0566 C.3     1  UNL1        0.0768
     24 N         139.0521  139.7633  166.2721 N.3     1  UNL1       -0.2737
     25 C         140.0670  140.0102  167.3487 C.3     1  UNL1        0.0721
     26 C         140.5789  141.4113  167.1907 C.3     1  UNL1        0.0187
     27 C         139.8803  142.0303  166.0164 C.3     1  UNL1        0.0174
     28 C         138.9367  141.0118  165.4487 C.3     1  UNL1        0.0576
     29 C         138.0359  141.2075  164.2654 C.3     1  UNL1        0.0173
@<TRIPOS>BOND
     1    16    17    1
     2    17    18   ar
     3    18    19   ar
     4    19    11    1
     5    11    12   ar
     6    12    13   ar
     7    13     1    1
     8     1     2   ar
     9     2     3   ar
    10     3     4   ar
    11     4     5   ar
    12     5     6   ar
    13     6    22    1
    14    22    23    1
    15    23    24    1
    16    24    25    1
    17    25    26    1
    18    26    27    1
    19    27    28    1
    20    28    29    1
    21     6     7   ar
    22     7     8   ar
    23     8     9   ar
    24     9    10   ar
    25    13    14   ar
    26    14    15   ar
    27    19    20   ar
    28    20    21   ar
    29    21    17   ar
    30    15    11   ar
    31    10     1   ar
    32     9     4   ar
    33    28    24    1
@<TRIPOS>MOLECULE
*****
 29 33 0 0 0
SMALL
GASTEIGER

@<TRIPOS>ATOM
      1 C         140.8287  138.5610  162.6629 C.ar    1  UNL1        0.0994
      2 C         142.2917  138.2325  162.6222 C.ar    1  UNL1        0.0207
      3 C         142.9747  138.0134  161.3049 C.ar    1  UNL1        0.0031
      4 C         142.1947  138.1228  160.0283 C.ar    1  UNL1        0.0174
      5 C         142.8779  137.9037  158.7109 C.ar    1  UNL1       -0.0027
      6 C         142.0979  138.0131  157.4343 C.ar    1  UNL1       -0.0207
      7 C         140.6348  138.3416  157.4751 C.ar    1  UNL1       -0.0027
      8 C         139.9518  138.5607  158.7924 C.ar    1  UNL1        0.0188
      9 C         140.7317  138.4513  160.0690 C.ar    1  UNL1        0.0813
     10 N         140.0487  138.6704  161.3864 N.ar    1  UNL1       -0.2438
     11 C         139.6310  139.6025  166.2050 C.ar    1  UNL1        0.1317
     12 N         140.6122  139.6941  165.0742 N.ar    1  UNL1       -0.2352
     13 C         140.1456  138.7800  163.9803 C.ar    1  UNL1        0.1060
     14 C         138.8759  138.1235  164.4351 C.ar    1  UNL1        0.0575
     15 S         138.5578  138.6317  165.8100 S.2     1  UNL1       -0.0643
     16 C         140.6387  143.3435  169.7925 C.3     1  UNL1        0.0754
     17 C         140.1723  142.0699  169.1520 C.ar    1  UNL1        0.1549
     18 C         140.3099  141.7102  167.7023 C.ar    1  UNL1        0.0601
     19 C         139.7091  140.3503  167.5030 C.ar    1  UNL1        0.1463
     20 N         139.2001  139.8696  168.8295 N.ar    1  UNL1       -0.0753
     21 O         139.4863  140.9323  169.8487 O.2     1  UNL1       -0.3577
     22 C         142.7809  137.7941  156.1169 C.3     1  UNL1        0.0437
     23 C         143.6278  136.5743  155.9049 C.3     1  UNL1        0.0768
     24 N         142.9792  135.2428  155.6675 N.3     1  UNL1       -0.2737
     25 C         142.2263  134.8360  154.4355 C.3     1  UNL1        0.0721
     26 C         141.7513  133.4262  154.6269 C.3     1  UNL1        0.0187
     27 C         142.2105  132.9617  155.9773 C.3     1  UNL1        0.0174
     28 C         142.9694  134.0844  156.6203 C.3     1  UNL1        0.0576
     29 C         143.6065  134.0540  157.9779 C.3     1  UNL1        0.0173
@<TRIPOS>BOND
     1    16    17    1
     2    17    18   ar
     3    18    19   ar
     4    19    11    1
     5    11    12   ar
     6    12    13   ar
     7    13     1    1
     8     1     2   ar
     9     2     3   ar
    10     3     4   ar
    11     4     5   ar
    12     5     6   ar
    13     6    22    1
    14    22    23    1
    15    23    24    1
    16    24    25    1
    17    25    26    1
    18    26    27    1
    19    27    28    1
    20    28    29    1
    21     6     7   ar
    22     7     8   ar
    23     8     9   ar
    24     9    10   ar
    25    13    14   ar
    26    14    15   ar
    27    19    20   ar
    28    20    21   ar
    29    21    17   ar
    30    15    11   ar
    31    10     1   ar
    32     9     4   ar
    33    28    24    1
@<TRIPOS>MOLECULE
*****
 29 33 0 0 0
SMALL
GASTEIGER

@<TRIPOS>ATOM
      1 C         140.2338  140.8309  163.4191 C.ar    1  UNL1        0.0994
      2 C         139.0532  140.9708  164.3336 C.ar    1  UNL1        0.0207
      3 C         139.1878  140.6341  165.7891 C.ar    1  UNL1        0.0031
      4 C         140.5032  140.1573  166.3300 C.ar    1  UNL1        0.0174
      5 C         140.6378  139.8205  167.7855 C.ar    1  UNL1       -0.0027
      6 C         141.9531  139.3438  168.3265 C.ar    1  UNL1       -0.0207
      7 C         143.1339  139.2039  167.4119 C.ar    1  UNL1       -0.0027
      8 C         142.9992  139.5406  165.9564 C.ar    1  UNL1        0.0188
      9 C         141.6838  140.0174  165.4155 C.ar    1  UNL1        0.0813
     10 N         141.5492  140.3541  163.9600 N.ar    1  UNL1       -0.2438
     11 C         139.1883  141.4267  159.7289 C.ar    1  UNL1        0.1317
     12 N         138.8814  140.9462  161.1163 N.ar    1  UNL1       -0.2352
     13 C         140.0992  141.1677  161.9635 C.ar    1  UNL1        0.1060
     14 C         141.1588  141.7851  161.0998 C.ar    1  UNL1        0.0575
     15 S         140.5959  141.9452  159.7187 S.2     1  UNL1       -0.0643
     16 C         136.4539  142.8585  155.4449 C.3     1  UNL1        0.0754
     17 C         136.9952  142.0525  156.5882 C.ar    1  UNL1        0.1549
     18 C         137.9992  142.5207  157.5995 C.ar    1  UNL1        0.0601
     19 C         138.2521  141.3944  158.5573 C.ar    1  UNL1        0.1463
     20 N         137.4045  140.2301  158.1379 N.ar    1  UNL1       -0.0753
     21 O         136.6276  140.6368  156.9209 O.2     1  UNL1       -0.3577
     22 C         142.0878  139.0070  169.7819 C.3     1  UNL1        0.0437
     23 C         142.2379  140.1034  170.7947 C.3     1  UNL1        0.0768
     24 N         141.6610  141.4607  170.5217 N.3     1  UNL1       -0.2737
     25 C         140.2312  141.8676  170.7220 C.3     1  UNL1        0.0721
     26 C         140.0990  143.3079  170.3245 C.3     1  UNL1        0.0187
     27 C         141.4473  143.7912  169.8786 C.3     1  UNL1        0.0174
     28 C         142.4126  142.6496  170.0004 C.3     1  UNL1        0.0576
     29 C         143.8730  142.6898  169.6607 C.3     1  UNL1        0.0173
@<TRIPOS>BOND
     1    16    17    1
     2    17    18   ar
     3    18    19   ar
     4    19    11    1
     5    11    12   ar
     6    12    13   ar
     7    13     1    1
     8     1     2   ar
     9     2     3   ar
    10     3     4   ar
    11     4     5   ar
    12     5     6   ar
    13     6    22    1
    14    22    23    1
    15    23    24    1
    16    24    25    1
    17    25    26    1
    18    26    27    1
    19    27    28    1
    20    28    29    1
    21     6     7   ar
    22     7     8   ar
    23     8     9   ar
    24     9    10   ar
    25    13    14   ar
    26    14    15   ar
    27    19    20   ar
    28    20    21   ar
    29    21    17   ar
    30    15    11   ar
    31    10     1   ar
    32     9     4   ar
    33    28    24    1
@<TRIPOS>MOLECULE
*****
 29 33 0 0 0
SMALL
GASTEIGER

@<TRIPOS>ATOM
      1 C         140.2957  144.3491  159.7992 C.ar    1  UNL1        0.0994
      2 C         141.6935  144.1896  160.3194 C.ar    1  UNL1        0.0207
      3 C         141.9260  143.9344  161.7791 C.ar    1  UNL1        0.0031
      4 C         140.7606  143.8387  162.7186 C.ar    1  UNL1        0.0174
      5 C         140.9931  143.5835  164.1784 C.ar    1  UNL1       -0.0027
      6 C         139.8277  143.4879  165.1180 C.ar    1  UNL1       -0.0207
      7 C         138.4299  143.6474  164.5977 C.ar    1  UNL1       -0.0027
      8 C         138.1974  143.9026  163.1380 C.ar    1  UNL1        0.0188
      9 C         139.3628  143.9983  162.1985 C.ar    1  UNL1        0.0813
     10 N         139.1303  144.2535  160.7388 N.ar    1  UNL1       -0.2438
     11 C         140.0119  145.6779  156.1634 C.ar    1  UNL1        0.1317
     12 N         140.4224  145.8561  157.5950 N.ar    1  UNL1       -0.2352
     13 C         140.0632  144.6044  158.3394 C.ar    1  UNL1        0.1060
     14 C         139.4306  143.6526  157.3678 C.ar    1  UNL1        0.0575
     15 S         139.3989  144.3161  156.0229 S.2     1  UNL1       -0.0643
     16 C         139.5904  150.0746  153.2699 C.3     1  UNL1        0.0754
     17 C         139.9904  148.7058  153.7349 C.ar    1  UNL1        0.1549
     18 C         139.5431  148.0395  155.0022 C.ar    1  UNL1        0.0601
     19 C         140.1841  146.6848  155.0649 C.ar    1  UNL1        0.1463
     20 N         141.0275  146.5139  153.8364 N.ar    1  UNL1       -0.0753
     21 O         140.9078  147.7628  153.0144 O.2     1  UNL1       -0.3577
     22 C         140.0602  143.2327  166.5777 C.3     1  UNL1        0.0437
     23 C         140.5778  141.9004  167.0330 C.3     1  UNL1        0.0768
     24 N         141.4590  141.8122  168.2437 N.3     1  UNL1       -0.2737
     25 C         142.9061  142.2013  168.3111 C.3     1  UNL1        0.0721
     26 C         143.3894  141.9489  169.7086 C.3     1  UNL1        0.0187
     27 C         142.2408  141.4038  170.5048 C.3     1  UNL1        0.0174
     28 C         141.0479  141.3193  169.5994 C.3     1  UNL1        0.0576
     29 C         139.6833  140.8282  169.9825 C.3     1  UNL1        0.0173
@<TRIPOS>BOND
     1    16    17    1
     2    17    18   ar
     3    18    19   ar
     4    19    11    1
     5    11    12   ar
     6    12    13   ar
     7    13     1    1
     8     1     2   ar
     9     2     3   ar
    10     3     4   ar
    11     4     5   ar
    12     5     6   ar
    13     6    22    1
    14    22    23    1
    15    23    24    1
    16    24    25    1
    17    25    26    1
    18    26    27    1
    19    27    28    1
    20    28    29    1
    21     6     7   ar
    22     7     8   ar
    23     8     9   ar
    24     9    10   ar
    25    13    14   ar
    26    14    15   ar
    27    19    20   ar
    28    20    21   ar
    29    21    17   ar
    30    15    11   ar
    31    10     1   ar
    32     9     4   ar
    33    28    24    1
