@<TRIPOS>MOLECULE
*****
 44 48 0 0 0
SMALL
GASTEIGER

@<TRIPOS>ATOM
      1 C         140.3824  143.5660  159.9299 C.3     1  UNL1        0.0972
      2 C         139.7245  142.5229  160.7838 C.3     1  UNL1        0.0431
      3 C         140.2607  141.1831  160.3745 C.3     1  UNL1        0.0968
      4 N         141.2500  141.3981  159.2677 N.am    1  UNL1       -0.2623
      5 C         142.0275  140.3284  158.5599 C.2     1  UNL1        0.3073
      6 O         142.9860  140.6968  157.4666 O.2     1  UNL1       -0.2523
      7 N         141.8465  138.8901  158.9454 N.am    1  UNL1       -0.2625
      8 C         142.6240  137.8204  158.2377 C.3     1  UNL1        0.1164
      9 C         141.3252  142.8709  158.9929 C.3     1  UNL1        0.1147
     10 C         140.8880  138.5217  160.0388 C.3     1  UNL1        0.0942
     11 C         139.4025  138.3708  159.8953 C.3     1  UNL1        0.0386
     12 C         138.8431  137.9953  161.2354 C.3     1  UNL1        0.0739
     13 N         139.9828  137.9141  162.2072 N.3     1  UNL1       -0.2712
     14 C         141.2466  138.2394  161.4677 C.3     1  UNL1        0.0922
     15 C         139.8772  137.5683  163.6631 C.3     1  UNL1        0.0725
     16 C         141.1082  137.2022  164.4381 C.3     1  UNL1        0.0220
     17 C         141.6967  138.1765  165.4151 C.3     1  UNL1        0.0278
     18 C         142.7441  139.1508  164.9639 C.ar    1  UNL1       -0.0221
     19 C         142.8573  140.4911  165.6278 C.ar    1  UNL1       -0.0034
     20 C         143.9048  141.4655  165.1766 C.ar    1  UNL1        0.0111
     21 C         144.8390  141.0994  164.0616 C.ar    1  UNL1        0.0577
     22 CL        145.8865  142.0738  163.6104 Cl      1  UNL1       -0.0822
     23 C         144.7257  139.7591  163.3977 C.ar    1  UNL1        0.0111
     24 C         143.6783  138.7848  163.8488 C.ar    1  UNL1       -0.0034
     25 C         140.1377  145.8651  158.7449 C.3     1  UNL1        0.1152
     26 N         140.1401  145.0446  160.0007 N.am    1  UNL1       -0.2742
     27 C         139.9002  145.7027  161.3270 C.2     1  UNL1        0.2491
     28 O         139.6578  147.1813  161.3978 O.2     1  UNL1       -0.2699
     29 C         139.9026  144.8821  162.5828 C.ar    1  UNL1        0.0536
     30 C         141.2023  144.5013  163.2274 C.ar    1  UNL1        0.0045
     31 C         141.2046  143.6809  164.4831 C.ar    1  UNL1        0.0001
     32 C         139.9072  143.2412  165.0941 C.ar    1  UNL1        0.0000
     33 C         138.6075  143.6220  164.4495 C.ar    1  UNL1        0.0001
     34 C         138.6051  144.4425  163.1938 C.ar    1  UNL1        0.0045
     35 C         139.9096  142.4206  166.3499 C.ar    1  UNL1       -0.0000
     36 C         140.4043  143.0168  167.6343 C.ar    1  UNL1       -0.0001
     37 C         140.4067  142.1962  168.8901 C.ar    1  UNL1        0.0039
     38 C         139.9144  140.7796  168.8612 C.ar    1  UNL1        0.0714
     39 C         139.4197  140.1835  167.5767 C.ar    1  UNL1        0.0039
     40 C         139.4173  141.0040  166.3210 C.ar    1  UNL1       -0.0001
     41 C         139.9167  139.9591  170.1169 C.3     1  UNL1        0.4186
     42 F         139.9191  139.1386  171.3725 F       1  UNL1       -0.1659
     43 F         138.4559  140.2426  170.3049 F       1  UNL1       -0.1659
     44 F         141.3776  139.6755  169.9288 F       1  UNL1       -0.1659
@<TRIPOS>BOND
     1    25    26    1
     2    26    27   am
     3    27    28    2
     4    27    29    1
     5    29    30   ar
     6    30    31   ar
     7    31    32   ar
     8    32    35    1
     9    35    36   ar
    10    36    37   ar
    11    37    38   ar
    12    38    41    1
    13    41    42    1
    14    41    43    1
    15    41    44    1
    16    38    39   ar
    17    39    40   ar
    18    32    33   ar
    19    33    34   ar
    20     1    26    1
    21     1     2    1
    22     2     3    1
    23     3     4    1
    24     4     5   am
    25     5     6    2
    26     5     7   am
    27     7     8    1
    28    10     7    1
    29    10    11    1
    30    11    12    1
    31    12    13    1
    32    13    15    1
    33    15    16    1
    34    16    17    1
    35    17    18    1
    36    18    19   ar
    37    19    20   ar
    38    20    21   ar
    39    21    22    1
    40    21    23   ar
    41    23    24   ar
    42    13    14    1
    43     4     9    1
    44    34    29   ar
    45     9     1    1
    46    40    35   ar
    47    14    10    1
    48    24    18   ar
@<TRIPOS>MOLECULE
*****
 44 48 0 0 0
SMALL
GASTEIGER

@<TRIPOS>ATOM
      1 C         141.9672  139.6174  159.5458 C.3     1  UNL1        0.0972
      2 C         140.9091  139.9862  160.5430 C.3     1  UNL1        0.0431
      3 C         140.5619  141.4310  160.3375 C.3     1  UNL1        0.0968
      4 N         141.4054  141.9550  159.2133 N.am    1  UNL1       -0.2623
      5 C         141.3842  143.3542  158.6732 C.2     1  UNL1        0.3073
      6 O         142.2898  143.7344  157.5396 O.2     1  UNL1       -0.2523
      7 N         140.4572  144.3732  159.2667 N.am    1  UNL1       -0.2625
      8 C         140.4359  145.7724  158.7266 C.3     1  UNL1        0.1164
      9 C         142.2739  140.8341  158.7240 C.3     1  UNL1        0.1147
     10 C         139.5515  143.9931  160.4004 C.3     1  UNL1        0.0942
     11 C         138.4441  142.9829  160.3435 C.3     1  UNL1        0.0386
     12 C         137.8024  142.9218  161.6979 C.3     1  UNL1        0.0739
     13 N         138.5132  143.8942  162.5919 N.3     1  UNL1       -0.2712
     14 C         139.5942  144.5563  161.7899 C.3     1  UNL1        0.0922
     15 C         138.1982  144.1582  164.0346 C.3     1  UNL1        0.0725
     16 C         139.2927  144.1230  165.0597 C.3     1  UNL1        0.0220
     17 C         140.2262  142.9505  165.1201 C.3     1  UNL1        0.0278
     18 C         139.6869  141.5751  165.3796 C.ar    1  UNL1       -0.0221
     19 C         139.6140  141.0504  166.7828 C.ar    1  UNL1       -0.0034
     20 C         139.0747  139.6749  167.0423 C.ar    1  UNL1        0.0111
     21 C         138.6083  138.8242  165.8983 C.ar    1  UNL1        0.0577
     22 CL        138.0690  137.4487  166.1578 Cl      1  UNL1       -0.0822
     23 C         138.6812  139.3488  164.4950 C.ar    1  UNL1        0.0111
     24 C         139.2205  140.7243  164.2355 C.ar    1  UNL1       -0.0034
     25 C         142.6396  137.5987  158.0549 C.3     1  UNL1        0.1152
     26 N         142.6063  138.2686  159.3967 N.am    1  UNL1       -0.2742
     27 C         143.2122  137.5897  160.5891 C.2     1  UNL1        0.2491
     28 O         143.8513  136.2409  160.4399 O.2     1  UNL1       -0.2699
     29 C         143.1789  138.2596  161.9309 C.ar    1  UNL1        0.0536
     30 C         142.2087  137.7962  162.9767 C.ar    1  UNL1        0.0045
     31 C         142.1754  138.4661  164.3183 C.ar    1  UNL1        0.0001
     32 C         143.1125  139.5994  164.6142 C.ar    1  UNL1        0.0000
     33 C         144.0827  140.0628  163.5683 C.ar    1  UNL1        0.0001
     34 C         144.1159  139.3929  162.2267 C.ar    1  UNL1        0.0045
     35 C         143.0792  140.2693  165.9559 C.ar    1  UNL1       -0.0000
     36 C         143.3441  141.7416  166.0659 C.ar    1  UNL1       -0.0001
     37 C         143.3108  142.4115  167.4076 C.ar    1  UNL1        0.0039
     38 C         143.0126  141.6091  168.6393 C.ar    1  UNL1        0.0714
     39 C         142.7477  140.1367  168.5293 C.ar    1  UNL1        0.0039
     40 C         142.7810  139.4669  167.1876 C.ar    1  UNL1       -0.0001
     41 C         142.9794  142.2789  169.9810 C.3     1  UNL1        0.4186
     42 F         142.9461  142.9487  171.3227 F       1  UNL1       -0.1659
     43 F         141.4834  142.1704  169.9981 F       1  UNL1       -0.1659
     44 F         144.4753  142.3874  169.9639 F       1  UNL1       -0.1659
@<TRIPOS>BOND
     1    25    26    1
     2    26    27   am
     3    27    28    2
     4    27    29    1
     5    29    30   ar
     6    30    31   ar
     7    31    32   ar
     8    32    35    1
     9    35    36   ar
    10    36    37   ar
    11    37    38   ar
    12    38    41    1
    13    41    42    1
    14    41    43    1
    15    41    44    1
    16    38    39   ar
    17    39    40   ar
    18    32    33   ar
    19    33    34   ar
    20     1    26    1
    21     1     2    1
    22     2     3    1
    23     3     4    1
    24     4     5   am
    25     5     6    2
    26     5     7   am
    27     7     8    1
    28    10     7    1
    29    10    11    1
    30    11    12    1
    31    12    13    1
    32    13    15    1
    33    15    16    1
    34    16    17    1
    35    17    18    1
    36    18    19   ar
    37    19    20   ar
    38    20    21   ar
    39    21    22    1
    40    21    23   ar
    41    23    24   ar
    42    13    14    1
    43     4     9    1
    44    34    29   ar
    45     9     1    1
    46    40    35   ar
    47    14    10    1
    48    24    18   ar
@<TRIPOS>MOLECULE
*****
 44 48 0 0 0
SMALL
GASTEIGER

@<TRIPOS>ATOM
      1 C         139.4267  140.7947  164.8607 C.3     1  UNL1        0.0972
      2 C         140.8523  141.2120  164.6519 C.3     1  UNL1        0.0431
      3 C         140.8492  142.5371  163.9490 C.3     1  UNL1        0.0968
      4 N         139.4217  142.9387  163.7233 N.am    1  UNL1       -0.2623
      5 C         138.9552  144.1964  163.0520 C.2     1  UNL1        0.3073
      6 O         137.4874  144.4638  162.8972 O.2     1  UNL1       -0.2523
      7 N         139.9565  145.1866  162.5356 N.am    1  UNL1       -0.2625
      8 C         139.4901  146.4443  161.8643 C.3     1  UNL1        0.1164
      9 C         138.5426  141.8619  164.2868 C.3     1  UNL1        0.1147
     10 C         141.4244  144.9192  162.6904 C.3     1  UNL1        0.0942
     11 C         142.3089  145.4571  163.7759 C.3     1  UNL1        0.0386
     12 C         143.6965  144.9372  163.5433 C.3     1  UNL1        0.0739
     13 N         143.6697  144.0780  162.3140 N.3     1  UNL1       -0.2712
     14 C         142.2654  144.0669  161.7870 C.3     1  UNL1        0.0922
     15 C         144.8414  143.3566  161.7168 C.3     1  UNL1        0.0725
     16 C         145.0726  141.9091  162.0351 C.3     1  UNL1        0.0220
     17 C         144.1639  140.8612  161.4640 C.3     1  UNL1        0.0278
     18 C         143.4738  141.1002  160.1537 C.ar    1  UNL1       -0.0221
     19 C         141.9969  141.3597  160.1203 C.ar    1  UNL1       -0.0034
     20 C         141.3068  141.5986  158.8100 C.ar    1  UNL1        0.0111
     21 C         142.0938  141.5781  157.5333 C.ar    1  UNL1        0.0577
     22 CL        141.4038  141.8171  156.2229 Cl      1  UNL1       -0.0822
     23 C         143.5708  141.3186  157.5667 C.ar    1  UNL1        0.0111
     24 C         144.2609  141.0797  158.8769 C.ar    1  UNL1       -0.0034
     25 C         138.4987  139.5628  166.9516 C.3     1  UNL1        0.1152
     26 N         138.9661  139.5319  165.5265 N.am    1  UNL1       -0.2742
     27 C         138.9730  138.2382  164.7674 C.2     1  UNL1        0.2491
     28 O         138.5124  136.9755  165.4332 O.2     1  UNL1       -0.2699
     29 C         139.4404  138.2073  163.3423 C.ar    1  UNL1        0.0536
     30 C         140.8822  137.9344  163.0317 C.ar    1  UNL1        0.0045
     31 C         141.3495  137.9035  161.6067 C.ar    1  UNL1        0.0001
     32 C         140.3750  138.1455  160.4924 C.ar    1  UNL1        0.0000
     33 C         138.9332  138.4184  160.8030 C.ar    1  UNL1        0.0001
     34 C         138.4659  138.4493  162.2280 C.ar    1  UNL1        0.0045
     35 C         140.8424  138.1145  159.0673 C.ar    1  UNL1       -0.0000
     36 C         142.2913  137.8798  158.7582 C.ar    1  UNL1       -0.0001
     37 C         142.7587  137.8489  157.3331 C.ar    1  UNL1        0.0039
     38 C         141.7772  138.0527  156.2173 C.ar    1  UNL1        0.0714
     39 C         140.3282  138.2874  156.5265 C.ar    1  UNL1        0.0039
     40 C         139.8609  138.3183  157.9515 C.ar    1  UNL1       -0.0001
     41 C         142.2445  138.0218  154.7923 C.3     1  UNL1        0.4186
     42 F         142.7118  137.9909  153.3674 F       1  UNL1       -0.1659
     43 F         143.1818  139.1582  155.0751 F       1  UNL1       -0.1659
     44 F         141.3072  136.8854  154.5096 F       1  UNL1       -0.1659
@<TRIPOS>BOND
     1    25    26    1
     2    26    27   am
     3    27    28    2
     4    27    29    1
     5    29    30   ar
     6    30    31   ar
     7    31    32   ar
     8    32    35    1
     9    35    36   ar
    10    36    37   ar
    11    37    38   ar
    12    38    41    1
    13    41    42    1
    14    41    43    1
    15    41    44    1
    16    38    39   ar
    17    39    40   ar
    18    32    33   ar
    19    33    34   ar
    20     1    26    1
    21     1     2    1
    22     2     3    1
    23     3     4    1
    24     4     5   am
    25     5     6    2
    26     5     7   am
    27     7     8    1
    28    10     7    1
    29    10    11    1
    30    11    12    1
    31    12    13    1
    32    13    15    1
    33    15    16    1
    34    16    17    1
    35    17    18    1
    36    18    19   ar
    37    19    20   ar
    38    20    21   ar
    39    21    22    1
    40    21    23   ar
    41    23    24   ar
    42    13    14    1
    43     4     9    1
    44    34    29   ar
    45     9     1    1
    46    40    35   ar
    47    14    10    1
    48    24    18   ar
@<TRIPOS>MOLECULE
*****
 44 48 0 0 0
SMALL
GASTEIGER

@<TRIPOS>ATOM
      1 C         142.3885  140.5015  156.4801 C.3     1  UNL1        0.0972
      2 C         142.3316  141.0452  157.8769 C.3     1  UNL1        0.0431
      3 C         141.5761  142.3405  157.8397 C.3     1  UNL1        0.0968
      4 N         141.1662  142.5974  156.4199 N.am    1  UNL1       -0.2623
      5 C         140.3904  143.7828  155.9269 C.2     1  UNL1        0.3073
      6 O         140.0519  143.9046  154.4707 O.2     1  UNL1       -0.2523
      7 N         139.9532  144.8463  156.8900 N.am    1  UNL1       -0.2625
      8 C         139.1774  146.0316  156.3971 C.3     1  UNL1        0.1164
      9 C         141.6683  141.4608  155.5796 C.3     1  UNL1        0.1147
     10 C         140.2918  144.7245  158.3463 C.3     1  UNL1        0.0942
     11 C         141.4121  145.4284  159.0529 C.3     1  UNL1        0.0386
     12 C         141.3822  145.0163  160.4948 C.3     1  UNL1        0.0739
     13 N         140.2434  144.0576  160.6794 N.3     1  UNL1       -0.2712
     14 C         139.5695  143.8773  159.3515 C.3     1  UNL1        0.0922
     15 C         139.8479  143.3956  161.9661 C.3     1  UNL1        0.0725
     16 C         140.7539  142.3796  162.5960 C.3     1  UNL1        0.0220
     17 C         140.8245  142.2615  164.0897 C.3     1  UNL1        0.0278
     18 C         141.6202  141.1559  164.7178 C.ar    1  UNL1       -0.0221
     19 C         141.3375  140.7372  166.1301 C.ar    1  UNL1       -0.0034
     20 C         142.1332  139.6316  166.7582 C.ar    1  UNL1        0.0111
     21 C         143.2115  138.9447  165.9739 C.ar    1  UNL1        0.0577
     22 CL        144.0072  137.8390  166.6020 Cl      1  UNL1       -0.0822
     23 C         143.4943  139.3633  164.5615 C.ar    1  UNL1        0.0111
     24 C         142.6986  140.4689  163.9334 C.ar    1  UNL1       -0.0034
     25 C         143.7561  139.1445  154.7369 C.3     1  UNL1        0.1152
     26 N         143.0496  139.2229  156.0579 N.am    1  UNL1       -0.2742
     27 C         143.0044  138.0228  156.9566 C.2     1  UNL1        0.2491
     28 O         143.6655  136.7443  156.5344 O.2     1  UNL1       -0.2699
     29 C         142.2980  138.1013  158.2776 C.ar    1  UNL1        0.0536
     30 C         143.0887  138.0992  159.5522 C.ar    1  UNL1        0.0045
     31 C         142.3823  138.1776  160.8731 C.ar    1  UNL1        0.0001
     32 C         140.8851  138.2581  160.9193 C.ar    1  UNL1        0.0000
     33 C         140.0944  138.2602  159.6447 C.ar    1  UNL1        0.0001
     34 C         140.8008  138.1817  158.3238 C.ar    1  UNL1        0.0045
     35 C         140.1787  138.3365  162.2403 C.ar    1  UNL1       -0.0000
     36 C         139.0585  139.3149  162.4349 C.ar    1  UNL1       -0.0001
     37 C         138.3521  139.3933  163.7558 C.ar    1  UNL1        0.0039
     38 C         138.7660  138.4933  164.8822 C.ar    1  UNL1        0.0714
     39 C         139.8863  137.5149  164.6876 C.ar    1  UNL1        0.0039
     40 C         140.5926  137.4366  163.3667 C.ar    1  UNL1       -0.0001
     41 C         138.0596  138.5717  166.2031 C.3     1  UNL1        0.4186
     42 F         137.3533  138.6501  167.5241 F       1  UNL1       -0.1659
     43 F         138.0039  137.0739  166.2622 F       1  UNL1       -0.1659
     44 F         138.1154  140.0695  166.1441 F       1  UNL1       -0.1659
@<TRIPOS>BOND
     1    25    26    1
     2    26    27   am
     3    27    28    2
     4    27    29    1
     5    29    30   ar
     6    30    31   ar
     7    31    32   ar
     8    32    35    1
     9    35    36   ar
    10    36    37   ar
    11    37    38   ar
    12    38    41    1
    13    41    42    1
    14    41    43    1
    15    41    44    1
    16    38    39   ar
    17    39    40   ar
    18    32    33   ar
    19    33    34   ar
    20     1    26    1
    21     1     2    1
    22     2     3    1
    23     3     4    1
    24     4     5   am
    25     5     6    2
    26     5     7   am
    27     7     8    1
    28    10     7    1
    29    10    11    1
    30    11    12    1
    31    12    13    1
    32    13    15    1
    33    15    16    1
    34    16    17    1
    35    17    18    1
    36    18    19   ar
    37    19    20   ar
    38    20    21   ar
    39    21    22    1
    40    21    23   ar
    41    23    24   ar
    42    13    14    1
    43     4     9    1
    44    34    29   ar
    45     9     1    1
    46    40    35   ar
    47    14    10    1
    48    24    18   ar
@<TRIPOS>MOLECULE
*****
 44 48 0 0 0
SMALL
GASTEIGER

@<TRIPOS>ATOM
      1 C         140.2087  143.6617  159.7251 C.3     1  UNL1        0.0972
      2 C         140.7984  142.7994  160.8016 C.3     1  UNL1        0.0431
      3 C         140.8027  141.3823  160.3100 C.3     1  UNL1        0.0968
      4 N         140.2157  141.3686  158.9298 N.am    1  UNL1       -0.2623
      5 C         140.0286  140.1587  158.0631 C.2     1  UNL1        0.3073
      6 O         139.4243  140.3004  156.6976 O.2     1  UNL1       -0.2523
      7 N         140.4458  138.8070  158.5620 N.am    1  UNL1       -0.2625
      8 C         140.2587  137.5971  157.6955 C.3     1  UNL1        0.1164
      9 C         139.8485  142.7774  158.5683 C.3     1  UNL1        0.1147
     10 C         141.0501  138.6653  159.9276 C.3     1  UNL1        0.0942
     11 C         142.4873  138.3588  160.2283 C.3     1  UNL1        0.0386
     12 C         142.6487  138.3093  161.7187 C.3     1  UNL1        0.0739
     13 N         141.3112  138.5852  162.3392 N.3     1  UNL1       -0.2712
     14 C         140.3232  138.8052  161.2323 C.3     1  UNL1        0.0922
     15 C         141.0140  138.6327  163.8088 C.3     1  UNL1        0.0725
     16 C         141.7447  137.7230  164.7515 C.3     1  UNL1        0.0220
     17 C         143.0584  138.1486  165.3371 C.3     1  UNL1        0.0278
     18 C         143.4458  139.5976  165.3360 C.ar    1  UNL1       -0.0221
     19 C         144.3485  140.1318  164.2638 C.ar    1  UNL1       -0.0034
     20 C         144.7360  141.5810  164.2627 C.ar    1  UNL1        0.0111
     21 C         144.2206  142.4958  165.3338 C.ar    1  UNL1        0.0577
     22 CL        144.6081  143.9450  165.3327 Cl      1  UNL1       -0.0822
     23 C         143.3179  141.9617  166.4060 C.ar    1  UNL1        0.0111
     24 C         142.9304  140.5126  166.4072 C.ar    1  UNL1       -0.0034
     25 C         140.0120  145.9623  158.5342 C.3     1  UNL1        0.1152
     26 N         140.0134  145.1473  159.7935 N.am    1  UNL1       -0.2742
     27 C         139.8195  145.8180  161.1211 C.2     1  UNL1        0.2491
     28 O         139.6242  147.3036  161.1895 O.2     1  UNL1       -0.2699
     29 C         139.8209  145.0029  162.3804 C.ar    1  UNL1        0.0536
     30 C         138.5701  144.3027  162.8220 C.ar    1  UNL1        0.0045
     31 C         138.5715  143.4877  164.0813 C.ar    1  UNL1        0.0001
     32 C         139.8238  143.3730  164.8990 C.ar    1  UNL1        0.0000
     33 C         141.0746  144.0733  164.4574 C.ar    1  UNL1        0.0001
     34 C         141.0732  144.8883  163.1981 C.ar    1  UNL1        0.0045
     35 C         139.8252  142.5580  166.1583 C.ar    1  UNL1       -0.0000
     36 C         139.4516  141.1060  166.1124 C.ar    1  UNL1       -0.0001
     37 C         139.4530  140.2910  167.3717 C.ar    1  UNL1        0.0039
     38 C         139.8280  140.9281  168.6769 C.ar    1  UNL1        0.0714
     39 C         140.2017  142.3801  168.7228 C.ar    1  UNL1        0.0039
     40 C         140.2003  143.1950  167.4635 C.ar    1  UNL1       -0.0001
     41 C         139.8295  140.1131  169.9362 C.3     1  UNL1        0.4186
     42 F         139.8309  139.2982  171.1955 F       1  UNL1       -0.1659
     43 F         141.2511  139.7123  169.6752 F       1  UNL1       -0.1659
     44 F         138.4078  140.5139  170.1971 F       1  UNL1       -0.1659
@<TRIPOS>BOND
     1    25    26    1
     2    26    27   am
     3    27    28    2
     4    27    29    1
     5    29    30   ar
     6    30    31   ar
     7    31    32   ar
     8    32    35    1
     9    35    36   ar
    10    36    37   ar
    11    37    38   ar
    12    38    41    1
    13    41    42    1
    14    41    43    1
    15    41    44    1
    16    38    39   ar
    17    39    40   ar
    18    32    33   ar
    19    33    34   ar
    20     1    26    1
    21     1     2    1
    22     2     3    1
    23     3     4    1
    24     4     5   am
    25     5     6    2
    26     5     7   am
    27     7     8    1
    28    10     7    1
    29    10    11    1
    30    11    12    1
    31    12    13    1
    32    13    15    1
    33    15    16    1
    34    16    17    1
    35    17    18    1
    36    18    19   ar
    37    19    20   ar
    38    20    21   ar
    39    21    22    1
    40    21    23   ar
    41    23    24   ar
    42    13    14    1
    43     4     9    1
    44    34    29   ar
    45     9     1    1
    46    40    35   ar
    47    14    10    1
    48    24    18   ar
@<TRIPOS>MOLECULE
*****
 44 48 0 0 0
SMALL
GASTEIGER

@<TRIPOS>ATOM
      1 C         139.3131  140.8169  164.6516 C.3     1  UNL1        0.0972
      2 C         140.7443  141.2015  164.4195 C.3     1  UNL1        0.0431
      3 C         140.7606  142.5376  163.7380 C.3     1  UNL1        0.0968
      4 N         139.3394  142.9788  163.5488 N.am    1  UNL1       -0.2623
      5 C         138.8915  144.2587  162.9075 C.2     1  UNL1        0.3073
      6 O         137.4282  144.5655  162.7878 O.2     1  UNL1       -0.2523
      7 N         139.9070  145.2317  162.3859 N.am    1  UNL1       -0.2625
      8 C         139.4591  146.5115  161.7447 C.3     1  UNL1        0.1164
      9 C         138.4449  141.9153  164.1134 C.3     1  UNL1        0.1147
     10 C         141.3704  144.9248  162.5056 C.3     1  UNL1        0.0942
     11 C         142.2989  145.4536  163.5583 C.3     1  UNL1        0.0386
     12 C         143.6645  144.8909  163.2969 C.3     1  UNL1        0.0739
     13 N         143.5800  144.0142  162.0827 N.3     1  UNL1       -0.2712
     14 C         142.1621  144.0352  161.5937 C.3     1  UNL1        0.0922
     15 C         144.7143  143.2507  161.4658 C.3     1  UNL1        0.0725
     16 C         145.0523  141.8769  161.9642 C.3     1  UNL1        0.0220
     17 C         145.5993  141.6950  163.3491 C.3     1  UNL1        0.0278
     18 C         144.7168  141.1659  164.4405 C.ar    1  UNL1       -0.0221
     19 C         144.4441  139.6941  164.5371 C.ar    1  UNL1       -0.0034
     20 C         143.5615  139.1650  165.6286 C.ar    1  UNL1        0.0111
     21 C         142.9518  140.1076  166.6233 C.ar    1  UNL1        0.0577
     22 CL        142.0693  139.5785  167.7148 Cl      1  UNL1       -0.0822
     23 C         143.2246  141.5795  166.5267 C.ar    1  UNL1        0.0111
     24 C         144.1070  142.1086  165.4352 C.ar    1  UNL1       -0.0034
     25 C         138.3301  139.5885  166.7192 C.3     1  UNL1        0.1152
     26 N         138.8343  139.5553  165.3068 N.am    1  UNL1       -0.2742
     27 C         138.8596  138.2607  164.5496 C.2     1  UNL1        0.2491
     28 O         138.3807  136.9992  165.2048 O.2     1  UNL1       -0.2699
     29 C         139.3638  138.2276  163.1372 C.ar    1  UNL1        0.0536
     30 C         140.8106  137.9413  162.8639 C.ar    1  UNL1        0.0045
     31 C         141.3147  137.9081  161.4516 C.ar    1  UNL1        0.0001
     32 C         140.3720  138.1614  160.3126 C.ar    1  UNL1        0.0000
     33 C         138.9252  138.4477  160.5859 C.ar    1  UNL1        0.0001
     34 C         138.4211  138.4808  161.9983 C.ar    1  UNL1        0.0045
     35 C         140.8762  138.1282  158.9002 C.ar    1  UNL1       -0.0000
     36 C         142.3507  138.0696  158.6314 C.ar    1  UNL1       -0.0001
     37 C         142.8549  138.0365  157.2190 C.ar    1  UNL1        0.0039
     38 C         141.8845  138.0620  156.0755 C.ar    1  UNL1        0.0714
     39 C         140.4099  138.1206  156.3443 C.ar    1  UNL1        0.0039
     40 C         139.9058  138.1537  157.7567 C.ar    1  UNL1       -0.0001
     41 C         142.3886  138.0288  154.6631 C.3     1  UNL1        0.4186
     42 F         142.8927  137.9957  153.2508 F       1  UNL1       -0.1659
     43 F         140.9869  137.8302  154.1675 F       1  UNL1       -0.1659
     44 F         143.7903  138.2275  155.1588 F       1  UNL1       -0.1659
@<TRIPOS>BOND
     1    25    26    1
     2    26    27   am
     3    27    28    2
     4    27    29    1
     5    29    30   ar
     6    30    31   ar
     7    31    32   ar
     8    32    35    1
     9    35    36   ar
    10    36    37   ar
    11    37    38   ar
    12    38    41    1
    13    41    42    1
    14    41    43    1
    15    41    44    1
    16    38    39   ar
    17    39    40   ar
    18    32    33   ar
    19    33    34   ar
    20     1    26    1
    21     1     2    1
    22     2     3    1
    23     3     4    1
    24     4     5   am
    25     5     6    2
    26     5     7   am
    27     7     8    1
    28    10     7    1
    29    10    11    1
    30    11    12    1
    31    12    13    1
    32    13    15    1
    33    15    16    1
    34    16    17    1
    35    17    18    1
    36    18    19   ar
    37    19    20   ar
    38    20    21   ar
    39    21    22    1
    40    21    23   ar
    41    23    24   ar
    42    13    14    1
    43     4     9    1
    44    34    29   ar
    45     9     1    1
    46    40    35   ar
    47    14    10    1
    48    24    18   ar
@<TRIPOS>MOLECULE
*****
 44 48 0 0 0
SMALL
GASTEIGER

@<TRIPOS>ATOM
      1 C         140.2497  143.9383  159.4546 C.3     1  UNL1        0.0972
      2 C         141.5200  143.2243  159.8104 C.3     1  UNL1        0.0431
      3 C         141.3776  141.7901  159.3950 C.3     1  UNL1        0.0968
      4 N         140.0193  141.6176  158.7824 N.am    1  UNL1       -0.2623
      5 C         139.4568  140.3415  158.2300 C.2     1  UNL1        0.3073
      6 O         138.0755  140.3217  157.6457 O.2     1  UNL1       -0.2523
      7 N         140.2757  139.0851  158.2620 N.am    1  UNL1       -0.2625
      8 C         139.7132  137.8091  157.7096 C.3     1  UNL1        0.1164
      9 C         139.3223  142.9453  158.8193 C.3     1  UNL1        0.1147
     10 C         141.6570  139.1049  158.8463 C.3     1  UNL1        0.0942
     11 C         142.9191  139.4531  158.1143 C.3     1  UNL1        0.0386
     12 C         144.0609  139.3433  159.0808 C.3     1  UNL1        0.0739
     13 N         143.5045  138.9272  160.4102 N.3     1  UNL1       -0.2712
     14 C         142.0189  138.7799  160.2653 C.3     1  UNL1        0.0922
     15 C         144.2951  138.6987  161.6644 C.3     1  UNL1        0.0725
     16 C         144.7002  139.8635  162.5183 C.3     1  UNL1        0.0220
     17 C         143.7809  140.3601  163.5945 C.3     1  UNL1        0.0278
     18 C         142.5072  139.6254  163.8908 C.ar    1  UNL1       -0.0221
     19 C         142.4954  138.5261  164.9111 C.ar    1  UNL1       -0.0034
     20 C         141.2216  137.7913  165.2074 C.ar    1  UNL1        0.0111
     21 C         139.9597  138.1561  164.4833 C.ar    1  UNL1        0.0577
     22 CL        138.6859  137.4213  164.7796 Cl      1  UNL1       -0.0822
     23 C         139.9714  139.2555  163.4629 C.ar    1  UNL1        0.0111
     24 C         141.2451  139.9902  163.1666 C.ar    1  UNL1       -0.0034
     25 C         139.7121  146.3060  158.5299 C.3     1  UNL1        0.1152
     26 N         139.9581  145.3904  159.6923 N.am    1  UNL1       -0.2742
     27 C         139.9126  145.9267  161.0924 C.2     1  UNL1        0.2491
     28 O         139.6210  147.3788  161.3301 O.2     1  UNL1       -0.2699
     29 C         140.1587  145.0111  162.2548 C.ar    1  UNL1        0.0536
     30 C         141.5035  144.9868  162.9188 C.ar    1  UNL1        0.0045
     31 C         141.7495  144.0711  164.0811 C.ar    1  UNL1        0.0001
     32 C         140.6507  143.1798  164.5794 C.ar    1  UNL1        0.0000
     33 C         139.3060  143.2041  163.9154 C.ar    1  UNL1        0.0001
     34 C         139.0600  144.1198  162.7531 C.ar    1  UNL1        0.0045
     35 C         140.8968  142.2641  165.7418 C.ar    1  UNL1       -0.0000
     36 C         142.2589  142.1940  166.3660 C.ar    1  UNL1       -0.0001
     37 C         142.5050  141.2783  167.5284 C.ar    1  UNL1        0.0039
     38 C         141.3889  140.4328  168.0665 C.ar    1  UNL1        0.0714
     39 C         140.0268  140.5030  167.4421 C.ar    1  UNL1        0.0039
     40 C         139.7808  141.4186  166.2798 C.ar    1  UNL1       -0.0001
     41 C         141.6350  139.5172  169.2288 C.3     1  UNL1        0.4186
     42 F         141.8810  138.6015  170.3911 F       1  UNL1       -0.1659
     43 F         140.4157  140.0593  169.9139 F       1  UNL1       -0.1659
     44 F         142.8542  138.9750  168.5437 F       1  UNL1       -0.1659
@<TRIPOS>BOND
     1    25    26    1
     2    26    27   am
     3    27    28    2
     4    27    29    1
     5    29    30   ar
     6    30    31   ar
     7    31    32   ar
     8    32    35    1
     9    35    36   ar
    10    36    37   ar
    11    37    38   ar
    12    38    41    1
    13    41    42    1
    14    41    43    1
    15    41    44    1
    16    38    39   ar
    17    39    40   ar
    18    32    33   ar
    19    33    34   ar
    20     1    26    1
    21     1     2    1
    22     2     3    1
    23     3     4    1
    24     4     5   am
    25     5     6    2
    26     5     7   am
    27     7     8    1
    28    10     7    1
    29    10    11    1
    30    11    12    1
    31    12    13    1
    32    13    15    1
    33    15    16    1
    34    16    17    1
    35    17    18    1
    36    18    19   ar
    37    19    20   ar
    38    20    21   ar
    39    21    22    1
    40    21    23   ar
    41    23    24   ar
    42    13    14    1
    43     4     9    1
    44    34    29   ar
    45     9     1    1
    46    40    35   ar
    47    14    10    1
    48    24    18   ar
@<TRIPOS>MOLECULE
*****
 44 48 0 0 0
SMALL
GASTEIGER

@<TRIPOS>ATOM
      1 C         141.1473  144.0926  158.4559 C.3     1  UNL1        0.0972
      2 C         140.7874  142.7097  158.9121 C.3     1  UNL1        0.0431
      3 C         141.7918  141.7557  158.3368 C.3     1  UNL1        0.0968
      4 N         142.7725  142.5489  157.5250 N.am    1  UNL1       -0.2623
      5 C         143.9455  141.9951  156.7719 C.2     1  UNL1        0.3073
      6 O         144.8437  142.9158  156.0002 O.2     1  UNL1       -0.2523
      7 N         144.2203  140.5207  156.7904 N.am    1  UNL1       -0.2625
      8 C         145.3933  139.9668  156.0373 C.3     1  UNL1        0.1164
      9 C         142.3742  143.9932  157.5986 C.3     1  UNL1        0.1147
     10 C         143.3221  139.6000  157.5621 C.3     1  UNL1        0.0942
     11 C         142.1093  138.8980  157.0268 C.3     1  UNL1        0.0386
     12 C         141.5166  138.0838  158.1384 C.3     1  UNL1        0.0739
     13 N         142.3630  138.2825  159.3607 N.3     1  UNL1       -0.2712
     14 C         143.4788  139.2196  159.0045 C.3     1  UNL1        0.0922
     15 C         142.1338  137.6545  160.7035 C.3     1  UNL1        0.0725
     16 C         141.9156  138.5201  161.9089 C.3     1  UNL1        0.0220
     17 C         140.6027  139.2192  162.1025 C.3     1  UNL1        0.0278
     18 C         139.8399  139.0418  163.3818 C.ar    1  UNL1       -0.0221
     19 C         140.2808  138.0141  164.3815 C.ar    1  UNL1       -0.0034
     20 C         139.5180  137.8367  165.6609 C.ar    1  UNL1        0.0111
     21 C         138.3144  138.6869  165.9405 C.ar    1  UNL1        0.0577
     22 CL        137.5517  138.5095  167.2199 Cl      1  UNL1       -0.0822
     23 C         137.8735  139.7147  164.9408 C.ar    1  UNL1        0.0111
     24 C         138.6362  139.8921  163.6614 C.ar    1  UNL1       -0.0034
     25 C         140.0083  146.3052  157.7093 C.3     1  UNL1        0.1152
     26 N         140.4099  145.3535  158.7971 N.am    1  UNL1       -0.2742
     27 C         140.0739  145.6626  160.2259 C.2     1  UNL1        0.2491
     28 O         139.3365  146.9235  160.5670 O.2     1  UNL1       -0.2699
     29 C         140.4754  144.7109  161.3136 C.ar    1  UNL1        0.0536
     30 C         141.9191  144.5771  161.6979 C.ar    1  UNL1        0.0045
     31 C         142.3206  143.6254  162.7856 C.ar    1  UNL1        0.0001
     32 C         141.2783  142.8076  163.4890 C.ar    1  UNL1        0.0000
     33 C         139.8346  142.9414  163.1046 C.ar    1  UNL1        0.0001
     34 C         139.4331  143.8930  162.0170 C.ar    1  UNL1        0.0045
     35 C         141.6798  141.8558  164.5767 C.ar    1  UNL1       -0.0000
     36 C         142.8863  140.9820  164.4011 C.ar    1  UNL1       -0.0001
     37 C         143.2878  140.0303  165.4888 C.ar    1  UNL1        0.0039
     38 C         142.4828  139.9524  166.7521 C.ar    1  UNL1        0.0714
     39 C         141.2762  140.8263  166.9277 C.ar    1  UNL1        0.0039
     40 C         140.8748  141.7780  165.8400 C.ar    1  UNL1       -0.0001
     41 C         142.8842  139.0008  167.8398 C.3     1  UNL1        0.4186
     42 F         143.2856  138.0491  168.9275 F       1  UNL1       -0.1659
     43 F         142.1024  139.8072  168.8340 F       1  UNL1       -0.1659
     44 F         143.6660  138.1944  166.8457 F       1  UNL1       -0.1659
@<TRIPOS>BOND
     1    25    26    1
     2    26    27   am
     3    27    28    2
     4    27    29    1
     5    29    30   ar
     6    30    31   ar
     7    31    32   ar
     8    32    35    1
     9    35    36   ar
    10    36    37   ar
    11    37    38   ar
    12    38    41    1
    13    41    42    1
    14    41    43    1
    15    41    44    1
    16    38    39   ar
    17    39    40   ar
    18    32    33   ar
    19    33    34   ar
    20     1    26    1
    21     1     2    1
    22     2     3    1
    23     3     4    1
    24     4     5   am
    25     5     6    2
    26     5     7   am
    27     7     8    1
    28    10     7    1
    29    10    11    1
    30    11    12    1
    31    12    13    1
    32    13    15    1
    33    15    16    1
    34    16    17    1
    35    17    18    1
    36    18    19   ar
    37    19    20   ar
    38    20    21   ar
    39    21    22    1
    40    21    23   ar
    41    23    24   ar
    42    13    14    1
    43     4     9    1
    44    34    29   ar
    45     9     1    1
    46    40    35   ar
    47    14    10    1
    48    24    18   ar
@<TRIPOS>MOLECULE
*****
 44 48 0 0 0
SMALL
GASTEIGER

@<TRIPOS>ATOM
      1 C         139.8399  140.5856  165.2911 C.3     1  UNL1        0.0972
      2 C         139.3206  141.4329  164.1675 C.3     1  UNL1        0.0431
      3 C         140.3096  142.5335  163.9215 C.3     1  UNL1        0.0968
      4 N         141.4401  142.3665  164.8931 N.am    1  UNL1       -0.2623
      5 C         142.6488  143.2485  164.9997 C.2     1  UNL1        0.3073
      6 O         143.7027  142.9557  166.0259 O.2     1  UNL1       -0.2523
      7 N         142.8033  144.4232  164.0799 N.am    1  UNL1       -0.2625
      8 C         144.0119  145.3052  164.1864 C.3     1  UNL1        0.1164
      9 C         141.1498  141.1626  165.7395 C.3     1  UNL1        0.1147
     10 C         141.7493  144.7160  163.0536 C.3     1  UNL1        0.0942
     11 C         140.5241  145.5557  163.2627 C.3     1  UNL1        0.0386
     12 C         139.7530  145.5791  161.9763 C.3     1  UNL1        0.0739
     13 N         140.5017  144.7539  160.9721 N.3     1  UNL1       -0.2712
     14 C         141.7354  144.2204  161.6379 C.3     1  UNL1        0.0922
     15 C         140.0889  144.5056  159.5514 C.3     1  UNL1        0.0725
     16 C         139.3690  143.2404  159.1898 C.3     1  UNL1        0.0220
     17 C         140.0609  141.9171  159.3317 C.3     1  UNL1        0.0278
     18 C         141.4087  141.7048  158.7085 C.ar    1  UNL1       -0.0221
     19 C         141.5715  141.8067  157.2209 C.ar    1  UNL1       -0.0034
     20 C         142.9194  141.5945  156.5977 C.ar    1  UNL1        0.0111
     21 C         144.1042  141.2803  157.4621 C.ar    1  UNL1        0.0577
     22 CL        145.4521  141.0680  156.8388 Cl      1  UNL1       -0.0822
     23 C         143.9414  141.1783  158.9497 C.ar    1  UNL1        0.0111
     24 C         142.5936  141.3906  159.5730 C.ar    1  UNL1       -0.0034
     25 C         138.6957  139.3822  167.2893 C.3     1  UNL1        0.1152
     26 N         139.1673  139.3740  165.8653 N.am    1  UNL1       -0.2742
     27 C         138.9664  138.1543  165.0157 C.2     1  UNL1        0.2491
     28 O         138.2939  136.9427  165.5900 O.2     1  UNL1       -0.2699
     29 C         139.4380  138.1461  163.5918 C.ar    1  UNL1        0.0536
     30 C         140.8869  137.9106  163.2829 C.ar    1  UNL1        0.0045
     31 C         141.3584  137.9024  161.8590 C.ar    1  UNL1        0.0001
     32 C         140.3812  138.1297  160.7440 C.ar    1  UNL1        0.0000
     33 C         138.9323  138.3652  161.0528 C.ar    1  UNL1        0.0001
     34 C         138.4608  138.3734  162.4767 C.ar    1  UNL1        0.0045
     35 C         140.8528  138.1216  159.3200 C.ar    1  UNL1       -0.0000
     36 C         139.8759  138.3508  158.2051 C.ar    1  UNL1       -0.0001
     37 C         140.3476  138.3426  156.7811 C.ar    1  UNL1        0.0039
     38 C         141.7961  138.1052  156.4722 C.ar    1  UNL1        0.0714
     39 C         142.7730  137.8759  157.5872 C.ar    1  UNL1        0.0039
     40 C         142.3013  137.8841  159.0111 C.ar    1  UNL1       -0.0001
     41 C         142.2677  138.0970  155.0483 C.3     1  UNL1        0.4186
     42 F         142.7394  138.0888  153.6245 F       1  UNL1       -0.1659
     43 F         143.6433  138.4869  155.5018 F       1  UNL1       -0.1659
     44 F         140.8921  137.7071  154.5949 F       1  UNL1       -0.1659
@<TRIPOS>BOND
     1    25    26    1
     2    26    27   am
     3    27    28    2
     4    27    29    1
     5    29    30   ar
     6    30    31   ar
     7    31    32   ar
     8    32    35    1
     9    35    36   ar
    10    36    37   ar
    11    37    38   ar
    12    38    41    1
    13    41    42    1
    14    41    43    1
    15    41    44    1
    16    38    39   ar
    17    39    40   ar
    18    32    33   ar
    19    33    34   ar
    20     1    26    1
    21     1     2    1
    22     2     3    1
    23     3     4    1
    24     4     5   am
    25     5     6    2
    26     5     7   am
    27     7     8    1
    28    10     7    1
    29    10    11    1
    30    11    12    1
    31    12    13    1
    32    13    15    1
    33    15    16    1
    34    16    17    1
    35    17    18    1
    36    18    19   ar
    37    19    20   ar
    38    20    21   ar
    39    21    22    1
    40    21    23   ar
    41    23    24   ar
    42    13    14    1
    43     4     9    1
    44    34    29   ar
    45     9     1    1
    46    40    35   ar
    47    14    10    1
    48    24    18   ar
