@<TRIPOS>MOLECULE
*****
 32 35 0 0 0
SMALL
GASTEIGER

@<TRIPOS>ATOM
      1 O         137.0594  141.5606  162.5146 O.3     1  UNL1       -0.4517
      2 C         137.9009  142.4056  163.4245 C.ar    1  UNL1        0.2312
      3 N         138.0646  143.8709  163.1488 N.ar    1  UNL1       -0.1892
      4 C         138.9060  144.7158  164.0587 C.ar    1  UNL1        0.2029
      5 N         139.5839  144.0954  165.2443 N.ar    1  UNL1       -0.2046
      6 C         139.4202  142.6301  165.5201 C.ar    1  UNL1        0.1715
      7 C         138.5787  141.7852  164.6101 C.ar    1  UNL1        0.1098
      8 C         138.6010  140.3788  165.1314 C.ar    1  UNL1        0.1283
      9 N         139.4562  140.3546  166.3634 N.ar    1  UNL1       -0.1619
     10 N         139.9625  141.7460  166.6036 N.ar    1  UNL1       -0.2111
     11 C         140.8545  142.1775  167.7297 C.ar    1  UNL1        0.0949
     12 C         140.2925  142.9769  168.8677 C.ar    1  UNL1        0.0201
     13 C         141.1845  143.4084  169.9937 C.ar    1  UNL1        0.0016
     14 C         142.6387  143.0405  169.9819 C.ar    1  UNL1        0.0010
     15 C         143.2007  142.2410  168.8439 C.ar    1  UNL1        0.0129
     16 C         142.3087  141.8095  167.7179 C.ar    1  UNL1        0.0753
     17 CL        142.8708  141.0101  166.5799 Cl      1  UNL1       -0.0807
     18 C         137.7089  140.7375  161.4419 C.3     1  UNL1        0.2722
     19 C         138.6263  141.3883  160.4493 C.2     1  UNL1        0.2701
     20 O         139.7138  140.5879  159.7962 O.2     1  UNL1       -0.2707
     21 N         138.4560  142.8394  160.1099 N.am    1  UNL1       -0.2663
     22 H         137.7422  143.3648  160.5386 H       1  UNL1        0.1564
     23 C         139.3733  143.4902  159.1174 C.ar    1  UNL1        0.1342
     24 C         140.4354  144.4393  159.5878 C.ar    1  UNL1        0.0342
     25 C         141.3526  145.0900  158.5953 C.ar    1  UNL1        0.0001
     26 C         141.2079  144.7917  157.1323 C.ar    1  UNL1       -0.0026
     27 C         142.1251  145.4424  156.1398 C.3     1  UNL1        0.0327
     28 C         140.1458  143.8426  156.6620 C.ar    1  UNL1        0.0960
     29 N         139.2285  143.1918  157.6546 N.ar    1  UNL1       -0.2293
     30 C         137.4411  139.2638  161.3617 C.3     1  UNL1        0.1952
     31 C         139.5825  138.0511  162.1947 C.3     1  UNL1        0.1743
     32 O         138.1132  138.3262  162.3204 O.3     1  UNL1       -0.3467
@<TRIPOS>BOND
     1    31    32    1
     2    32    30    1
     3    18    30    1
     4    18     1    1
     5     1     2    1
     6     2     3   ar
     7     3     4   ar
     8     4     5   ar
     9     5     6   ar
    10     6     7   ar
    11     7     8   ar
    12     8     9   ar
    13     9    10   ar
    14    10    11    1
    15    11    12   ar
    16    12    13   ar
    17    13    14   ar
    18    14    15   ar
    19    15    16   ar
    20    16    17    1
    21    18    19    1
    22    19    20    2
    23    19    21   am
    24    21    23    1
    25    23    24   ar
    26    24    25   ar
    27    25    26   ar
    28    26    27    1
    29    26    28   ar
    30    28    29   ar
    31     7     2   ar
    32    16    11   ar
    33    29    23   ar
    34    10     6   ar
    35    21    22    1
@<TRIPOS>MOLECULE
*****
 32 35 0 0 0
SMALL
GASTEIGER

@<TRIPOS>ATOM
      1 O         141.7649  138.5099  157.4608 O.3     1  UNL1       -0.4517
      2 C         141.8517  138.3617  158.9509 C.ar    1  UNL1        0.2312
      3 N         143.1433  137.9443  159.5892 N.ar    1  UNL1       -0.1892
      4 C         143.2301  137.7961  161.0793 C.ar    1  UNL1        0.2029
      5 N         142.0252  138.0653  161.9312 N.ar    1  UNL1       -0.2046
      6 C         140.7335  138.4827  161.2929 C.ar    1  UNL1        0.1715
      7 C         140.6468  138.6309  159.8028 C.ar    1  UNL1        0.1098
      8 C         139.2491  139.0538  159.4596 C.ar    1  UNL1        0.1283
      9 N         138.4721  139.1669  160.7377 N.ar    1  UNL1       -0.1619
     10 N         139.3895  138.8139  161.8707 N.ar    1  UNL1       -0.2111
     11 C         139.0266  138.7955  163.3260 C.ar    1  UNL1        0.0949
     12 C         139.0475  137.5036  164.0879 C.ar    1  UNL1        0.0201
     13 C         138.6846  137.4851  165.5432 C.ar    1  UNL1        0.0016
     14 C         138.3008  138.7586  166.2367 C.ar    1  UNL1        0.0010
     15 C         138.2799  140.0505  165.4748 C.ar    1  UNL1        0.0129
     16 C         138.6428  140.0690  164.0195 C.ar    1  UNL1        0.0753
     17 CL        138.6219  141.3609  163.2577 Cl      1  UNL1       -0.0807
     18 C         142.9939  138.3415  156.6175 C.3     1  UNL1        0.2722
     19 C         143.5222  136.9677  156.3277 C.2     1  UNL1        0.2701
     20 O         144.7671  136.8004  155.5080 O.2     1  UNL1       -0.2707
     21 N         142.8054  135.7614  156.8578 N.am    1  UNL1       -0.2663
     22 H         141.9883  135.8712  157.3959 H       1  UNL1        0.1564
     23 C         143.3336  134.3877  156.5681 C.ar    1  UNL1        0.1342
     24 C         142.9466  133.6875  155.2992 C.ar    1  UNL1        0.0342
     25 C         143.4748  132.3139  155.0095 C.ar    1  UNL1        0.0001
     26 C         144.3901  131.6403  155.9887 C.ar    1  UNL1       -0.0026
     27 C         144.9182  130.2666  155.6990 C.3     1  UNL1        0.0327
     28 C         144.7770  132.3404  157.2576 C.ar    1  UNL1        0.0960
     29 N         144.2488  133.7142  157.5473 N.ar    1  UNL1       -0.2293
     30 C         143.6947  139.5466  156.0640 C.3     1  UNL1        0.1952
     31 C         146.0536  140.5476  155.6353 C.3     1  UNL1        0.1743
     32 O         145.0595  139.9165  156.5645 O.3     1  UNL1       -0.3467
@<TRIPOS>BOND
     1    31    32    1
     2    32    30    1
     3    18    30    1
     4    18     1    1
     5     1     2    1
     6     2     3   ar
     7     3     4   ar
     8     4     5   ar
     9     5     6   ar
    10     6     7   ar
    11     7     8   ar
    12     8     9   ar
    13     9    10   ar
    14    10    11    1
    15    11    12   ar
    16    12    13   ar
    17    13    14   ar
    18    14    15   ar
    19    15    16   ar
    20    16    17    1
    21    18    19    1
    22    19    20    2
    23    19    21   am
    24    21    23    1
    25    23    24   ar
    26    24    25   ar
    27    25    26   ar
    28    26    27    1
    29    26    28   ar
    30    28    29   ar
    31     7     2   ar
    32    16    11   ar
    33    29    23   ar
    34    10     6   ar
    35    21    22    1
@<TRIPOS>MOLECULE
*****
 32 35 0 0 0
SMALL
GASTEIGER

@<TRIPOS>ATOM
      1 O         141.0240  145.1726  161.2729 O.3     1  UNL1       -0.4517
      2 C         140.1603  144.6070  162.3612 C.ar    1  UNL1        0.2312
      3 N         138.6692  144.7520  162.2869 N.ar    1  UNL1       -0.1892
      4 C         137.8056  144.1864  163.3751 C.ar    1  UNL1        0.2029
      5 N         138.4331  143.4758  164.5376 N.ar    1  UNL1       -0.2046
      6 C         139.9242  143.3309  164.6118 C.ar    1  UNL1        0.1715
      7 C         140.7878  143.8964  163.5236 C.ar    1  UNL1        0.1098
      8 C         142.2181  143.6015  163.8664 C.ar    1  UNL1        0.1283
      9 N         142.2383  142.8536  165.1665 N.ar    1  UNL1       -0.1619
     10 N         140.8206  142.6863  165.6272 N.ar    1  UNL1       -0.2111
     11 C         140.3772  141.9958  166.8828 C.ar    1  UNL1        0.0949
     12 C         140.5344  142.6778  168.2094 C.ar    1  UNL1        0.0201
     13 C         140.0910  141.9873  169.4650 C.ar    1  UNL1        0.0016
     14 C         139.4904  140.6146  169.3940 C.ar    1  UNL1        0.0010
     15 C         139.3332  139.9326  168.0674 C.ar    1  UNL1        0.0129
     16 C         139.7766  140.6231  166.8118 C.ar    1  UNL1        0.0753
     17 CL        139.6194  139.9410  165.4851 Cl      1  UNL1       -0.0807
     18 C         141.0174  144.5479  159.9092 C.3     1  UNL1        0.2722
     19 C         141.0533  145.4160  158.6864 C.2     1  UNL1        0.2701
     20 O         142.3109  146.1485  158.3234 O.2     1  UNL1       -0.2707
     21 N         139.8316  145.5516  157.8267 N.am    1  UNL1       -0.2663
     22 H         139.0062  145.0708  158.0650 H       1  UNL1        0.1564
     23 C         139.8675  146.4196  156.6039 C.ar    1  UNL1        0.1342
     24 C         140.6870  146.0091  155.4165 C.ar    1  UNL1        0.0342
     25 C         140.7229  146.8772  154.1938 C.ar    1  UNL1        0.0001
     26 C         139.9393  148.1558  154.1584 C.ar    1  UNL1       -0.0026
     27 C         139.9752  149.0238  152.9357 C.3     1  UNL1        0.0327
     28 C         139.1198  148.5663  155.3458 C.ar    1  UNL1        0.0960
     29 N         139.0840  147.6981  156.5686 N.ar    1  UNL1       -0.2293
     30 C         140.9748  143.0552  159.7683 C.3     1  UNL1        0.1952
     31 C         138.5073  142.4897  159.1836 C.3     1  UNL1        0.1743
     32 O         139.7075  142.3096  160.0652 O.3     1  UNL1       -0.3467
@<TRIPOS>BOND
     1    31    32    1
     2    32    30    1
     3    18    30    1
     4    18     1    1
     5     1     2    1
     6     2     3   ar
     7     3     4   ar
     8     4     5   ar
     9     5     6   ar
    10     6     7   ar
    11     7     8   ar
    12     8     9   ar
    13     9    10   ar
    14    10    11    1
    15    11    12   ar
    16    12    13   ar
    17    13    14   ar
    18    14    15   ar
    19    15    16   ar
    20    16    17    1
    21    18    19    1
    22    19    20    2
    23    19    21   am
    24    21    23    1
    25    23    24   ar
    26    24    25   ar
    27    25    26   ar
    28    26    27    1
    29    26    28   ar
    30    28    29   ar
    31     7     2   ar
    32    16    11   ar
    33    29    23   ar
    34    10     6   ar
    35    21    22    1
@<TRIPOS>MOLECULE
*****
 32 35 0 0 0
SMALL
GASTEIGER

@<TRIPOS>ATOM
      1 O         144.8781  140.7346  162.4335 O.3     1  UNL1       -0.4517
      2 C         144.1714  141.3470  163.6064 C.ar    1  UNL1        0.2312
      3 N         143.9056  142.8229  163.6349 N.ar    1  UNL1       -0.1892
      4 C         143.1991  143.4352  164.8078 C.ar    1  UNL1        0.2029
      5 N         142.7583  142.5715  165.9523 N.ar    1  UNL1       -0.2046
      6 C         143.0241  141.0956  165.9238 C.ar    1  UNL1        0.1715
      7 C         143.7307  140.4833  164.7509 C.ar    1  UNL1        0.1098
      8 C         143.8530  139.0093  165.0012 C.ar    1  UNL1        0.1283
      9 N         143.2220  138.7107  166.3288 N.ar    1  UNL1       -0.1619
     10 N         142.7097  140.0001  166.8990 N.ar    1  UNL1       -0.2111
     11 C         142.0065  140.1650  168.2137 C.ar    1  UNL1        0.0949
     12 C         142.8005  140.3933  169.4656 C.ar    1  UNL1        0.0201
     13 C         142.0973  140.5583  170.7802 C.ar    1  UNL1        0.0016
     14 C         140.6000  140.4949  170.8429 C.ar    1  UNL1        0.0010
     15 C         139.8059  140.2666  169.5910 C.ar    1  UNL1        0.0129
     16 C         140.5091  140.1017  168.2764 C.ar    1  UNL1        0.0753
     17 CL        139.7150  139.8734  167.0245 Cl      1  UNL1       -0.0807
     18 C         144.0869  140.2028  161.2754 C.3     1  UNL1        0.2722
     19 C         143.2492  141.1331  160.4490 C.2     1  UNL1        0.2701
     20 O         142.2107  140.5807  159.5183 O.2     1  UNL1       -0.2707
     21 N         143.4501  142.6159  160.5534 N.am    1  UNL1       -0.2663
     22 H         144.1317  142.9785  161.1643 H       1  UNL1        0.1564
     23 C         142.6124  143.5463  159.7271 C.ar    1  UNL1        0.1342
     24 C         141.3067  144.0550  160.2620 C.ar    1  UNL1        0.0342
     25 C         140.4690  144.9853  159.4357 C.ar    1  UNL1        0.0001
     26 C         140.9372  145.4070  158.0744 C.ar    1  UNL1       -0.0026
     27 C         140.0996  146.3374  157.2481 C.3     1  UNL1        0.0327
     28 C         142.2430  144.8983  157.5395 C.ar    1  UNL1        0.0960
     29 N         143.0806  143.9679  158.3659 N.ar    1  UNL1       -0.2293
     30 C         144.1333  138.7407  160.9436 C.3     1  UNL1        0.1952
     31 C         141.8802  137.8414  161.8737 C.3     1  UNL1        0.1743
     32 O         143.3752  137.7564  161.7842 O.3     1  UNL1       -0.3467
@<TRIPOS>BOND
     1    31    32    1
     2    32    30    1
     3    18    30    1
     4    18     1    1
     5     1     2    1
     6     2     3   ar
     7     3     4   ar
     8     4     5   ar
     9     5     6   ar
    10     6     7   ar
    11     7     8   ar
    12     8     9   ar
    13     9    10   ar
    14    10    11    1
    15    11    12   ar
    16    12    13   ar
    17    13    14   ar
    18    14    15   ar
    19    15    16   ar
    20    16    17    1
    21    18    19    1
    22    19    20    2
    23    19    21   am
    24    21    23    1
    25    23    24   ar
    26    24    25   ar
    27    25    26   ar
    28    26    27    1
    29    26    28   ar
    30    28    29   ar
    31     7     2   ar
    32    16    11   ar
    33    29    23   ar
    34    10     6   ar
    35    21    22    1
@<TRIPOS>MOLECULE
*****
 32 35 0 0 0
SMALL
GASTEIGER

@<TRIPOS>ATOM
      1 O         139.8944  137.3334  162.6581 O.3     1  UNL1       -0.4517
      2 C         140.7171  138.0685  163.6744 C.ar    1  UNL1        0.2312
      3 N         142.1967  138.2158  163.4771 N.ar    1  UNL1       -0.1892
      4 C         143.0193  138.9508  164.4935 C.ar    1  UNL1        0.2029
      5 N         142.3622  139.5385  165.7072 N.ar    1  UNL1       -0.2046
      6 C         140.8826  139.3912  165.9045 C.ar    1  UNL1        0.1715
      7 C         140.0600  138.6561  164.8881 C.ar    1  UNL1        0.1098
      8 C         138.6325  138.6707  165.3488 C.ar    1  UNL1        0.1283
      9 N         138.5729  139.4148  166.6498 N.ar    1  UNL1       -0.1619
     10 N         139.9636  139.8600  166.9932 N.ar    1  UNL1       -0.2111
     11 C         140.3647  140.6377  168.2116 C.ar    1  UNL1        0.0949
     12 C         140.5782  139.9297  169.5166 C.ar    1  UNL1        0.0201
     13 C         140.9793  140.7073  170.7350 C.ar    1  UNL1        0.0016
     14 C         141.1671  142.1930  170.6483 C.ar    1  UNL1        0.0010
     15 C         140.9537  142.9010  169.3432 C.ar    1  UNL1        0.0129
     16 C         140.5525  142.1233  168.1249 C.ar    1  UNL1        0.0753
     17 CL        140.3391  142.8314  166.8199 Cl      1  UNL1       -0.0807
     18 C         139.2200  138.0883  161.5511 C.3     1  UNL1        0.2722
     19 C         139.9783  138.4226  160.3008 C.2     1  UNL1        0.2701
     20 O         139.2397  138.8506  159.0674 O.2     1  UNL1       -0.2707
     21 N         141.4753  138.3288  160.2839 N.am    1  UNL1       -0.2663
     22 H         141.9601  138.0478  161.0934 H       1  UNL1        0.1564
     23 C         142.2336  138.6631  159.0336 C.ar    1  UNL1        0.1342
     24 C         142.9357  139.9831  158.9126 C.ar    1  UNL1        0.0342
     25 C         143.6940  140.3173  157.6623 C.ar    1  UNL1        0.0001
     26 C         143.7504  139.3315  156.5331 C.ar    1  UNL1       -0.0026
     27 C         144.5087  139.6658  155.2828 C.3     1  UNL1        0.0327
     28 C         143.0483  138.0115  156.6542 C.ar    1  UNL1        0.0960
     29 N         142.2899  137.6773  157.9045 N.ar    1  UNL1       -0.2293
     30 C         137.7874  138.5089  161.6944 C.3     1  UNL1        0.1952
     31 C         137.6809  140.9371  162.6123 C.3     1  UNL1        0.1743
     32 O         137.4072  139.9491  161.5173 O.3     1  UNL1       -0.3467
@<TRIPOS>BOND
     1    31    32    1
     2    32    30    1
     3    18    30    1
     4    18     1    1
     5     1     2    1
     6     2     3   ar
     7     3     4   ar
     8     4     5   ar
     9     5     6   ar
    10     6     7   ar
    11     7     8   ar
    12     8     9   ar
    13     9    10   ar
    14    10    11    1
    15    11    12   ar
    16    12    13   ar
    17    13    14   ar
    18    14    15   ar
    19    15    16   ar
    20    16    17    1
    21    18    19    1
    22    19    20    2
    23    19    21   am
    24    21    23    1
    25    23    24   ar
    26    24    25   ar
    27    25    26   ar
    28    26    27    1
    29    26    28   ar
    30    28    29   ar
    31     7     2   ar
    32    16    11   ar
    33    29    23   ar
    34    10     6   ar
    35    21    22    1
@<TRIPOS>MOLECULE
*****
 32 35 0 0 0
SMALL
GASTEIGER

@<TRIPOS>ATOM
      1 O         141.8130  137.5701  156.5665 O.3     1  UNL1       -0.4517
      2 C         141.7805  138.0240  157.9958 C.ar    1  UNL1        0.2312
      3 N         142.9555  137.7656  158.8917 N.ar    1  UNL1       -0.1892
      4 C         142.9230  138.2195  160.3209 C.ar    1  UNL1        0.2029
      5 N         141.7155  138.9318  160.8544 N.ar    1  UNL1       -0.2046
      6 C         140.5405  139.1902  159.9586 C.ar    1  UNL1        0.1715
      7 C         140.5730  138.7363  158.5293 C.ar    1  UNL1        0.1098
      8 C         139.2748  139.1291  157.8885 C.ar    1  UNL1        0.1283
      9 N         138.4400  139.8257  158.9219 N.ar    1  UNL1       -0.1619
     10 N         139.2223  139.8635  160.2012 N.ar    1  UNL1       -0.2111
     11 C         138.7663  140.4683  161.4959 C.ar    1  UNL1        0.0949
     12 C         138.6685  141.9587  161.6341 C.ar    1  UNL1        0.0201
     13 C         138.2125  142.5636  162.9288 C.ar    1  UNL1        0.0016
     14 C         137.8544  141.6780  164.0854 C.ar    1  UNL1        0.0010
     15 C         137.9523  140.1876  163.9471 C.ar    1  UNL1        0.0129
     16 C         138.4083  139.5828  162.6524 C.ar    1  UNL1        0.0753
     17 CL        138.5061  138.0924  162.5143 Cl      1  UNL1       -0.0807
     18 C         143.0721  136.9920  155.9916 C.3     1  UNL1        0.2722
     19 C         143.3078  135.5113  156.0399 C.2     1  UNL1        0.2701
     20 O         143.4178  134.7274  154.7658 O.2     1  UNL1       -0.2707
     21 N         143.4334  134.8147  157.3623 N.am    1  UNL1       -0.2663
     22 H         143.3612  135.3292  158.1986 H       1  UNL1        0.1564
     23 C         143.6691  133.3341  157.4107 C.ar    1  UNL1        0.1342
     24 C         144.9402  132.7958  157.9976 C.ar    1  UNL1        0.0342
     25 C         145.1759  131.3153  158.0460 C.ar    1  UNL1        0.0001
     26 C         144.1405  130.3729  157.5074 C.ar    1  UNL1       -0.0026
     27 C         144.3762  128.8924  157.5558 C.3     1  UNL1        0.0327
     28 C         142.8694  130.9113  156.9205 C.ar    1  UNL1        0.0960
     29 N         142.6337  132.3919  156.8722 N.ar    1  UNL1       -0.2293
     30 C         144.0954  137.8944  155.3684 C.3     1  UNL1        0.1952
     31 C         143.9722  140.3564  156.1890 C.3     1  UNL1        0.1743
     32 O         144.6737  139.0308  156.1584 O.3     1  UNL1       -0.3467
@<TRIPOS>BOND
     1    31    32    1
     2    32    30    1
     3    18    30    1
     4    18     1    1
     5     1     2    1
     6     2     3   ar
     7     3     4   ar
     8     4     5   ar
     9     5     6   ar
    10     6     7   ar
    11     7     8   ar
    12     8     9   ar
    13     9    10   ar
    14    10    11    1
    15    11    12   ar
    16    12    13   ar
    17    13    14   ar
    18    14    15   ar
    19    15    16   ar
    20    16    17    1
    21    18    19    1
    22    19    20    2
    23    19    21   am
    24    21    23    1
    25    23    24   ar
    26    24    25   ar
    27    25    26   ar
    28    26    27    1
    29    26    28   ar
    30    28    29   ar
    31     7     2   ar
    32    16    11   ar
    33    29    23   ar
    34    10     6   ar
    35    21    22    1
@<TRIPOS>MOLECULE
*****
 32 35 0 0 0
SMALL
GASTEIGER

@<TRIPOS>ATOM
      1 O         137.6885  142.7832  161.3383 O.3     1  UNL1       -0.4517
      2 C         138.4412  142.3265  160.1238 C.ar    1  UNL1        0.2312
      3 N         138.7986  143.3101  159.0492 N.ar    1  UNL1       -0.1892
      4 C         139.5513  142.8534  157.8348 C.ar    1  UNL1        0.2029
      5 N         139.9466  141.4132  157.6950 N.ar    1  UNL1       -0.2046
      6 C         139.5892  140.4296  158.7696 C.ar    1  UNL1        0.1715
      7 C         138.8365  140.8863  159.9840 C.ar    1  UNL1        0.1098
      8 C         138.6247  139.6966  160.8727 C.ar    1  UNL1        0.1283
      9 N         139.2465  138.5046  160.2075 N.ar    1  UNL1       -0.1619
     10 N         139.8425  138.9577  158.9077 N.ar    1  UNL1       -0.2111
     11 C         140.5651  138.0909  157.9195 C.ar    1  UNL1        0.0949
     12 C         139.8137  137.4598  156.7851 C.ar    1  UNL1        0.0201
     13 C         140.5363  136.5931  155.7968 C.ar    1  UNL1        0.0016
     14 C         142.0104  136.3574  155.9430 C.ar    1  UNL1        0.0010
     15 C         142.7619  136.9886  157.0774 C.ar    1  UNL1        0.0129
     16 C         142.0393  137.8553  158.0656 C.ar    1  UNL1        0.0753
     17 CL        142.7909  138.4864  159.2000 Cl      1  UNL1       -0.0807
     18 C         138.4357  143.2220  162.5627 C.3     1  UNL1        0.2722
     19 C         139.2037  142.2195  163.3722 C.2     1  UNL1        0.2701
     20 O         138.4789  141.2963  164.3062 O.2     1  UNL1       -0.2707
     21 N         140.6964  142.1401  163.2476 N.am    1  UNL1       -0.2663
     22 H         141.1721  142.7461  162.6346 H       1  UNL1        0.1564
     23 C         141.4644  141.1377  164.0570 C.ar    1  UNL1        0.1342
     24 C         141.6535  139.7425  163.5395 C.ar    1  UNL1        0.0342
     25 C         142.4215  138.7400  164.3489 C.ar    1  UNL1        0.0001
     26 C         143.0003  139.1327  165.6759 C.ar    1  UNL1       -0.0026
     27 C         143.7683  138.1302  166.4854 C.3     1  UNL1        0.0327
     28 C         142.8112  140.5278  166.1934 C.ar    1  UNL1        0.0960
     29 N         142.0432  141.5303  165.3839 N.ar    1  UNL1       -0.2293
     30 C         138.4150  144.6633  162.9776 C.3     1  UNL1        0.1952
     31 C         140.1530  145.7691  161.3943 C.3     1  UNL1        0.1743
     32 O         138.7770  145.7332  161.9906 O.3     1  UNL1       -0.3467
@<TRIPOS>BOND
     1    31    32    1
     2    32    30    1
     3    18    30    1
     4    18     1    1
     5     1     2    1
     6     2     3   ar
     7     3     4   ar
     8     4     5   ar
     9     5     6   ar
    10     6     7   ar
    11     7     8   ar
    12     8     9   ar
    13     9    10   ar
    14    10    11    1
    15    11    12   ar
    16    12    13   ar
    17    13    14   ar
    18    14    15   ar
    19    15    16   ar
    20    16    17    1
    21    18    19    1
    22    19    20    2
    23    19    21   am
    24    21    23    1
    25    23    24   ar
    26    24    25   ar
    27    25    26   ar
    28    26    27    1
    29    26    28   ar
    30    28    29   ar
    31     7     2   ar
    32    16    11   ar
    33    29    23   ar
    34    10     6   ar
    35    21    22    1
@<TRIPOS>MOLECULE
*****
 32 35 0 0 0
SMALL
GASTEIGER

@<TRIPOS>ATOM
      1 O         141.5428  138.5959  157.0251 O.3     1  UNL1       -0.4517
      2 C         141.6663  138.4043  158.5077 C.ar    1  UNL1        0.2312
      3 N         142.9509  137.8987  159.0942 N.ar    1  UNL1       -0.1892
      4 C         143.0744  137.7072  160.5767 C.ar    1  UNL1        0.2029
      5 N         141.9132  138.0213  161.4728 N.ar    1  UNL1       -0.2046
      6 C         140.6285  138.5269  160.8864 C.ar    1  UNL1        0.1715
      7 C         140.5051  138.7184  159.4038 C.ar    1  UNL1        0.1098
      8 C         139.1239  139.2277  159.1156 C.ar    1  UNL1        0.1283
      9 N         138.3938  139.3509  160.4201 N.ar    1  UNL1       -0.1619
     10 N         139.3237  138.9178  161.5145 N.ar    1  UNL1       -0.2111
     11 C         139.0048  138.8818  162.9798 C.ar    1  UNL1        0.0949
     12 C         139.1005  137.5904  163.7367 C.ar    1  UNL1        0.0201
     13 C         138.7816  137.5545  165.2020 C.ar    1  UNL1        0.0016
     14 C         138.3669  138.8100  165.9103 C.ar    1  UNL1        0.0010
     15 C         138.2712  140.1014  165.1533 C.ar    1  UNL1        0.0129
     16 C         138.5901  140.1374  163.6881 C.ar    1  UNL1        0.0753
     17 CL        138.4944  141.4288  162.9312 Cl      1  UNL1       -0.0807
     18 C         142.4749  137.8766  156.0957 C.3     1  UNL1        0.2722
     19 C         143.7795  138.5064  155.7063 C.2     1  UNL1        0.2701
     20 O         145.0197  137.6677  155.6158 O.2     1  UNL1       -0.2707
     21 N         143.8437  139.9749  155.4074 N.am    1  UNL1       -0.2663
     22 H         143.0296  140.5254  155.4668 H       1  UNL1        0.1564
     23 C         145.1482  140.6047  155.0180 C.ar    1  UNL1        0.1342
     24 C         145.5506  140.6648  153.5742 C.ar    1  UNL1        0.0342
     25 C         146.8550  141.2946  153.1848 C.ar    1  UNL1        0.0001
     26 C         147.7572  141.8643  154.2392 C.ar    1  UNL1       -0.0026
     27 C         149.0617  142.4941  153.8498 C.3     1  UNL1        0.0327
     28 C         147.3548  141.8041  155.6829 C.ar    1  UNL1        0.0960
     29 N         146.0502  141.1743  156.0723 N.ar    1  UNL1       -0.2293
     30 C         142.1025  136.5277  155.5558 C.3     1  UNL1        0.1952
     31 C         143.3644  134.8359  157.0709 C.3     1  UNL1        0.1743
     32 O         142.0861  135.3345  156.4646 O.3     1  UNL1       -0.3467
@<TRIPOS>BOND
     1    31    32    1
     2    32    30    1
     3    18    30    1
     4    18     1    1
     5     1     2    1
     6     2     3   ar
     7     3     4   ar
     8     4     5   ar
     9     5     6   ar
    10     6     7   ar
    11     7     8   ar
    12     8     9   ar
    13     9    10   ar
    14    10    11    1
    15    11    12   ar
    16    12    13   ar
    17    13    14   ar
    18    14    15   ar
    19    15    16   ar
    20    16    17    1
    21    18    19    1
    22    19    20    2
    23    19    21   am
    24    21    23    1
    25    23    24   ar
    26    24    25   ar
    27    25    26   ar
    28    26    27    1
    29    26    28   ar
    30    28    29   ar
    31     7     2   ar
    32    16    11   ar
    33    29    23   ar
    34    10     6   ar
    35    21    22    1
@<TRIPOS>MOLECULE
*****
 32 35 0 0 0
SMALL
GASTEIGER

@<TRIPOS>ATOM
      1 O         142.0368  139.4208  156.8225 O.3     1  UNL1       -0.4517
      2 C         142.0394  139.6239  158.3087 C.ar    1  UNL1        0.2312
      3 N         141.4043  138.6036  159.2062 N.ar    1  UNL1       -0.1892
      4 C         141.4069  138.8066  160.6924 C.ar    1  UNL1        0.2029
      5 N         142.0447  140.0300  161.2810 N.ar    1  UNL1       -0.2046
      6 C         142.6798  141.0504  160.3836 C.ar    1  UNL1        0.1715
      7 C         142.6772  140.8473  158.8974 C.ar    1  UNL1        0.1098
      8 C         143.3753  142.0166  158.2685 C.ar    1  UNL1        0.1283
      9 N         143.8094  142.9423  159.3660 N.ar    1  UNL1       -0.1619
     10 N         143.3796  142.3451  160.6732 N.ar    1  UNL1       -0.2111
     11 C         143.6091  142.9385  162.0316 C.ar    1  UNL1        0.0949
     12 C         142.9849  144.2543  162.3905 C.ar    1  UNL1        0.0201
     13 C         143.2145  144.8478  163.7489 C.ar    1  UNL1        0.0016
     14 C         144.0684  144.1254  164.7483 C.ar    1  UNL1        0.0010
     15 C         144.6926  142.8096  164.3894 C.ar    1  UNL1        0.0129
     16 C         144.4631  142.2161  163.0311 C.ar    1  UNL1        0.0753
     17 CL        145.0874  140.9003  162.6722 Cl      1  UNL1       -0.0807
     18 C         143.2426  138.8434  156.1423 C.3     1  UNL1        0.2722
     19 C         143.4481  137.3577  156.1139 C.2     1  UNL1        0.2701
     20 O         144.7192  136.7869  155.5586 O.2     1  UNL1       -0.2707
     21 N         142.3824  136.4430  156.6409 N.am    1  UNL1       -0.2663
     22 H         141.5482  136.8177  157.0053 H       1  UNL1        0.1564
     23 C         142.5879  134.9575  156.6125 C.ar    1  UNL1        0.1342
     24 C         141.8150  134.1118  155.6442 C.ar    1  UNL1        0.0342
     25 C         142.0205  132.6262  155.6158 C.ar    1  UNL1        0.0001
     26 C         142.9988  131.9863  156.5557 C.ar    1  UNL1       -0.0026
     27 C         143.2043  130.5007  156.5274 C.3     1  UNL1        0.0327
     28 C         143.7716  132.8319  157.5240 C.ar    1  UNL1        0.0960
     29 N         143.5662  134.3176  157.5524 N.ar    1  UNL1       -0.2293
     30 C         144.2428  139.7515  155.4906 C.3     1  UNL1        0.1952
     31 C         146.2944  141.3088  155.8307 C.3     1  UNL1        0.1743
     32 O         145.5356  140.0640  156.1841 O.3     1  UNL1       -0.3467
@<TRIPOS>BOND
     1    31    32    1
     2    32    30    1
     3    18    30    1
     4    18     1    1
     5     1     2    1
     6     2     3   ar
     7     3     4   ar
     8     4     5   ar
     9     5     6   ar
    10     6     7   ar
    11     7     8   ar
    12     8     9   ar
    13     9    10   ar
    14    10    11    1
    15    11    12   ar
    16    12    13   ar
    17    13    14   ar
    18    14    15   ar
    19    15    16   ar
    20    16    17    1
    21    18    19    1
    22    19    20    2
    23    19    21   am
    24    21    23    1
    25    23    24   ar
    26    24    25   ar
    27    25    26   ar
    28    26    27    1
    29    26    28   ar
    30    28    29   ar
    31     7     2   ar
    32    16    11   ar
    33    29    23   ar
    34    10     6   ar
    35    21    22    1
