@<TRIPOS>MOLECULE
*****
 34 39 0 0 0
SMALL
GASTEIGER

@<TRIPOS>ATOM
      1 C         142.6148  137.8988  157.3328 C.ar    1  UNL1        0.1028
      2 C         142.8271  138.5117  155.9804 C.ar    1  UNL1        0.0131
      3 C         142.5266  139.9647  155.7598 C.ar    1  UNL1       -0.0015
      4 C         142.0019  141.0784  156.6833 C.ar    1  UNL1        0.0035
      5 C         142.1520  139.7447  157.3532 C.ar    1  UNL1        0.0358
      6 C         142.1019  138.7387  158.4648 C.ar    1  UNL1        0.1545
      7 O         141.8593  138.2137  159.8487 O.3     1  UNL1       -0.4528
      8 C         141.4611  138.2494  161.2945 C.ar    1  UNL1        0.1454
      9 C         141.3645  137.1736  162.6428 C.ar    1  UNL1        0.0375
     10 C         140.9268  137.4004  164.0594 C.ar    1  UNL1        0.0032
     11 C         140.4722  138.7618  164.4951 C.ar    1  UNL1        0.0014
     12 C         140.0347  138.9876  165.9120 C.ar    1  UNL1        0.0001
     13 C         139.5799  140.3487  166.3487 C.ar    1  UNL1        0.0013
     14 C         139.5626  141.4840  165.3685 C.ar    1  UNL1        0.0149
     15 C         140.0001  141.2582  163.9516 C.ar    1  UNL1        0.0539
     16 C         140.4549  139.8971  163.5150 C.ar    1  UNL1        0.0167
     17 C         140.9679  138.8406  162.5818 C.ar    1  UNL1        0.0387
     18 N         139.6728  142.7166  163.8254 N.am    1  UNL1       -0.2575
     19 C         139.1692  143.8840  164.6212 C.3     1  UNL1        0.1001
     20 C         139.1182  145.0767  163.7131 C.3     1  UNL1        0.0470
     21 C         139.5728  145.0562  162.0439 C.3     1  UNL1        0.1340
     22 N         139.8154  145.5813  160.6599 N.3     1  UNL1       -0.2863
     23 C         140.2136  145.5455  159.2142 C.3     1  UNL1        0.1151
     24 C         140.7068  144.9544  157.9268 C.ar    1  UNL1        0.0739
     25 C         140.5959  146.2376  157.1580 C.ar    1  UNL1        0.1147
     26 N         141.0404  145.9741  155.7498 N.ar    1  UNL1       -0.2226
     27 C         141.4260  144.5281  155.6483 C.ar    1  UNL1        0.1786
     28 N         141.2198  143.8978  156.9937 N.ar    1  UNL1       -0.3070
     29 C         141.6746  142.5367  156.5571 C.3     1  UNL1        0.1341
     30 C         139.5227  144.0503  163.1555 C.2     1  UNL1        0.2437
     31 O         139.2648  144.3300  163.8559 O.2     1  UNL1       -0.2731
     32 H         140.4410  146.3394  160.9326 H       1  UNL1        0.1240
     33 N         143.2160  134.9929  157.7738 N.1     1  UNL1       -0.1907
     34 C         142.9154  136.4458  157.5533 C.1     1  UNL1        0.1035
@<TRIPOS>BOND
     1    33    34    3
     2    34     1    1
     3     1     2   ar
     4     2     3   ar
     5     3     4   ar
     6     4     5   ar
     7     5     6   ar
     8     6     7    1
     9     7     8    1
    10     8     9   ar
    11     9    10   ar
    12    10    11   ar
    13    11    12   ar
    14    12    13   ar
    15    13    14   ar
    16    14    15   ar
    17    15    16   ar
    18    16    17   ar
    19    15    18    1
    20    18    19    1
    21    19    20    1
    22    21    20    1
    23    21    22    1
    24    22    23    1
    25    23    24    1
    26    24    25   ar
    27    25    26   ar
    28    26    27   ar
    29    27    28   ar
    30    28    29    1
    31    21    30    1
    32    30    31    2
    33     6     1   ar
    34    17     8   ar
    35    30    18   am
    36    29     4    1
    37    16    11   ar
    38    28    24   ar
    39    22    32    1
@<TRIPOS>MOLECULE
*****
 34 39 0 0 0
SMALL
GASTEIGER

@<TRIPOS>ATOM
      1 C         140.1913  144.7256  156.6722 C.ar    1  UNL1        0.1028
      2 C         140.5273  144.1239  155.3400 C.ar    1  UNL1        0.0131
      3 C         141.0369  142.7154  155.2602 C.ar    1  UNL1       -0.0015
      4 C         141.3227  141.6423  156.3257 C.ar    1  UNL1        0.0035
      5 C         140.8100  142.9379  156.8809 C.ar    1  UNL1        0.0358
      6 C         140.3650  143.9189  157.9248 C.ar    1  UNL1        0.1545
      7 O         140.0556  144.4357  159.2985 O.3     1  UNL1       -0.4528
      8 C         139.9288  144.4097  160.7930 C.ar    1  UNL1        0.1454
      9 C         139.4377  145.4596  162.0739 C.ar    1  UNL1        0.0375
     10 C         139.3779  145.2485  163.5577 C.ar    1  UNL1        0.0032
     11 C         139.7938  143.9325  164.1454 C.ar    1  UNL1        0.0014
     12 C         139.7336  143.7223  165.6293 C.ar    1  UNL1        0.0001
     13 C         140.1493  142.4067  166.2179 C.ar    1  UNL1        0.0013
     14 C         140.6251  141.3013  165.3226 C.ar    1  UNL1        0.0149
     15 C         140.6852  141.5115  163.8386 C.ar    1  UNL1        0.0539
     16 C         140.2696  142.8272  163.2500 C.ar    1  UNL1        0.0167
     17 C         140.0040  143.8448  162.1805 C.ar    1  UNL1        0.0387
     18 N         141.1877  140.0983  163.8566 N.am    1  UNL1       -0.2575
     19 C         141.5037  138.9723  164.7959 C.3     1  UNL1        0.1001
     20 C         141.9919  137.8117  163.9807 C.3     1  UNL1        0.0470
     21 C         142.1453  137.8217  162.2574 C.3     1  UNL1        0.1340
     22 N         142.4547  137.3048  160.8837 N.3     1  UNL1       -0.2863
     23 C         142.5815  137.3309  159.3893 C.3     1  UNL1        0.1151
     24 C         142.5064  137.8957  158.0017 C.ar    1  UNL1        0.0739
     25 C         143.0116  136.6483  157.3393 C.ar    1  UNL1        0.1147
     26 N         143.0583  136.8951  155.8605 N.ar    1  UNL1       -0.2226
     27 C         142.5819  138.2950  155.6089 C.ar    1  UNL1        0.1786
     28 N         142.2408  138.9134  156.9322 N.ar    1  UNL1       -0.3070
     29 C         141.8251  140.2290  156.3437 C.3     1  UNL1        0.1341
     30 C         141.7004  138.8026  163.3014 C.2     1  UNL1        0.2437
     31 O         141.7272  138.5358  164.0521 O.2     1  UNL1       -0.2731
     32 H         141.8569  136.4799  160.9339 H       1  UNL1        0.1240
     33 N         139.1720  147.5426  156.8317 N.1     1  UNL1       -0.1907
     34 C         139.6817  146.1341  156.7520 C.1     1  UNL1        0.1035
@<TRIPOS>BOND
     1    33    34    3
     2    34     1    1
     3     1     2   ar
     4     2     3   ar
     5     3     4   ar
     6     4     5   ar
     7     5     6   ar
     8     6     7    1
     9     7     8    1
    10     8     9   ar
    11     9    10   ar
    12    10    11   ar
    13    11    12   ar
    14    12    13   ar
    15    13    14   ar
    16    14    15   ar
    17    15    16   ar
    18    16    17   ar
    19    15    18    1
    20    18    19    1
    21    19    20    1
    22    21    20    1
    23    21    22    1
    24    22    23    1
    25    23    24    1
    26    24    25   ar
    27    25    26   ar
    28    26    27   ar
    29    27    28   ar
    30    28    29    1
    31    21    30    1
    32    30    31    2
    33     6     1   ar
    34    17     8   ar
    35    30    18   am
    36    29     4    1
    37    16    11   ar
    38    28    24   ar
    39    22    32    1
@<TRIPOS>MOLECULE
*****
 34 39 0 0 0
SMALL
GASTEIGER

@<TRIPOS>ATOM
      1 C         139.6002  146.9830  156.3512 C.ar    1  UNL1        0.1028
      2 C         139.7674  146.8356  154.8680 C.ar    1  UNL1        0.0131
      3 C         140.4956  145.6490  154.3095 C.ar    1  UNL1       -0.0015
      4 C         141.1751  144.4331  154.9638 C.ar    1  UNL1        0.0035
      5 C         140.5587  145.3911  155.9396 C.ar    1  UNL1        0.0358
      6 C         140.1610  145.9438  157.2762 C.ar    1  UNL1        0.1545
      7 O         140.0428  146.0068  158.7701 O.3     1  UNL1       -0.4528
      8 C         140.2220  145.5706  160.1942 C.ar    1  UNL1        0.1454
      9 C         139.8145  146.1168  161.7816 C.ar    1  UNL1        0.0375
     10 C         140.0894  145.5246  163.1320 C.ar    1  UNL1        0.0032
     11 C         140.8430  144.2326  163.2451 C.ar    1  UNL1        0.0014
     12 C         141.1174  143.6412  164.5960 C.ar    1  UNL1        0.0001
     13 C         141.8710  142.3492  164.7101 C.ar    1  UNL1        0.0013
     14 C         142.3502  141.6487  163.4734 C.ar    1  UNL1        0.0149
     15 C         142.0758  142.2401  162.1225 C.ar    1  UNL1        0.0539
     16 C         141.3222  143.5321  162.0084 C.ar    1  UNL1        0.0167
     17 C         140.6712  144.7016  161.3312 C.ar    1  UNL1        0.0387
     18 N         142.8172  141.0224  161.6562 N.am    1  UNL1       -0.2575
     19 C         143.5104  139.7960  162.1715 C.3     1  UNL1        0.1001
     20 C         144.0273  139.0259  160.9927 C.3     1  UNL1        0.0470
     21 C         143.8312  139.5117  159.3438 C.3     1  UNL1        0.1340
     22 N         143.9495  139.4487  157.8498 N.3     1  UNL1       -0.2863
     23 C         143.7703  139.8849  156.4259 C.3     1  UNL1        0.1151
     24 C         143.3211  140.7539  155.2887 C.ar    1  UNL1        0.0739
     25 C         143.9004  139.8669  154.2268 C.ar    1  UNL1        0.1147
     26 N         143.6074  140.4883  152.8934 N.ar    1  UNL1       -0.2226
     27 C         142.8471  141.7592  153.1312 C.ar    1  UNL1        0.1786
     28 N         142.6701  141.9234  154.6116 N.ar    1  UNL1       -0.3070
     29 C         141.9165  143.2154  154.4975 C.3     1  UNL1        0.1341
     30 C         143.4337  140.0643  160.6805 C.2     1  UNL1        0.2437
     31 O         143.6564  139.6274  161.3090 O.2     1  UNL1       -0.2731
     32 H         143.5316  138.5247  157.7403 H       1  UNL1        0.1240
     33 N         138.1439  149.3560  157.4683 N.1     1  UNL1       -0.1907
     34 C         138.8720  148.1695  156.9097 C.1     1  UNL1        0.1035
@<TRIPOS>BOND
     1    33    34    3
     2    34     1    1
     3     1     2   ar
     4     2     3   ar
     5     3     4   ar
     6     4     5   ar
     7     5     6   ar
     8     6     7    1
     9     7     8    1
    10     8     9   ar
    11     9    10   ar
    12    10    11   ar
    13    11    12   ar
    14    12    13   ar
    15    13    14   ar
    16    14    15   ar
    17    15    16   ar
    18    16    17   ar
    19    15    18    1
    20    18    19    1
    21    19    20    1
    22    21    20    1
    23    21    22    1
    24    22    23    1
    25    23    24    1
    26    24    25   ar
    27    25    26   ar
    28    26    27   ar
    29    27    28   ar
    30    28    29    1
    31    21    30    1
    32    30    31    2
    33     6     1   ar
    34    17     8   ar
    35    30    18   am
    36    29     4    1
    37    16    11   ar
    38    28    24   ar
    39    22    32    1
@<TRIPOS>MOLECULE
*****
 34 39 0 0 0
SMALL
GASTEIGER

@<TRIPOS>ATOM
      1 C         142.4033  137.4102  156.7961 C.ar    1  UNL1        0.1028
      2 C         142.0780  137.6635  155.3540 C.ar    1  UNL1        0.0131
      3 C         141.5594  139.0045  154.9265 C.ar    1  UNL1       -0.0015
      4 C         141.2545  140.3034  155.6934 C.ar    1  UNL1        0.0035
      5 C         141.7700  139.1885  156.5542 C.ar    1  UNL1        0.0358
      6 C         142.2102  138.4978  157.8109 C.ar    1  UNL1        0.1545
      7 O         142.5080  138.3368  159.2721 O.3     1  UNL1       -0.4528
      8 C         142.6182  138.7297  160.7156 C.ar    1  UNL1        0.1454
      9 C         143.1024  138.0308  162.2194 C.ar    1  UNL1        0.0375
     10 C         143.1444  138.6000  163.6065 C.ar    1  UNL1        0.0032
     11 C         142.7129  140.0159  163.8495 C.ar    1  UNL1        0.0014
     12 C         142.7552  140.5843  165.2370 C.ar    1  UNL1        0.0001
     13 C         142.3239  142.0002  165.4809 C.ar    1  UNL1        0.0013
     14 C         141.8504  142.8476  164.3375 C.ar    1  UNL1        0.0149
     15 C         141.8081  142.2792  162.9500 C.ar    1  UNL1        0.0539
     16 C         142.2393  140.8634  162.7060 C.ar    1  UNL1        0.0167
     17 C         142.5238  139.6170  161.9213 C.ar    1  UNL1        0.0387
     18 N         141.2956  143.6488  162.6161 N.am    1  UNL1       -0.2575
     19 C         140.9614  144.9678  163.2475 C.3     1  UNL1        0.1001
     20 C         140.4742  145.8883  162.1681 C.3     1  UNL1        0.0470
     21 C         140.3399  145.4545  160.4986 C.3     1  UNL1        0.1340
     22 N         140.0421  145.6156  159.0373 N.3     1  UNL1       -0.2863
     23 C         139.9320  145.2226  157.5939 C.3     1  UNL1        0.1151
     24 C         140.0263  144.3353  156.3881 C.ar    1  UNL1        0.0739
     25 C         139.5198  145.3773  155.4354 C.ar    1  UNL1        0.1147
     26 N         139.4912  144.7749  154.0620 N.ar    1  UNL1       -0.2226
     27 C         139.9801  143.3606  154.1659 C.ar    1  UNL1        0.1786
     28 N         140.3108  143.0889  155.6035 N.ar    1  UNL1       -0.3070
     29 C         140.7421  141.6731  155.3596 C.3     1  UNL1        0.1341
     30 C         140.7801  144.7639  161.7554 C.2     1  UNL1        0.2437
     31 O         140.7432  145.2064  162.4174 O.2     1  UNL1       -0.2731
     32 H         140.6335  146.4332  158.8890 H       1  UNL1        0.1240
     33 N         143.4404  134.7281  157.6512 N.1     1  UNL1       -0.1907
     34 C         142.9219  136.0691  157.2237 C.1     1  UNL1        0.1035
@<TRIPOS>BOND
     1    33    34    3
     2    34     1    1
     3     1     2   ar
     4     2     3   ar
     5     3     4   ar
     6     4     5   ar
     7     5     6   ar
     8     6     7    1
     9     7     8    1
    10     8     9   ar
    11     9    10   ar
    12    10    11   ar
    13    11    12   ar
    14    12    13   ar
    15    13    14   ar
    16    14    15   ar
    17    15    16   ar
    18    16    17   ar
    19    15    18    1
    20    18    19    1
    21    19    20    1
    22    21    20    1
    23    21    22    1
    24    22    23    1
    25    23    24    1
    26    24    25   ar
    27    25    26   ar
    28    26    27   ar
    29    27    28   ar
    30    28    29    1
    31    21    30    1
    32    30    31    2
    33     6     1   ar
    34    17     8   ar
    35    30    18   am
    36    29     4    1
    37    16    11   ar
    38    28    24   ar
    39    22    32    1
@<TRIPOS>MOLECULE
*****
 34 39 0 0 0
SMALL
GASTEIGER

@<TRIPOS>ATOM
      1 C         145.4836  142.4812  157.3467 C.ar    1  UNL1        0.1028
      2 C         145.0382  142.4367  155.9151 C.ar    1  UNL1        0.0131
      3 C         143.6082  142.1279  155.5838 C.ar    1  UNL1       -0.0015
      4 C         142.3752  141.8168  156.4505 C.ar    1  UNL1        0.0035
      5 C         143.6292  142.0684  157.2342 C.ar    1  UNL1        0.0358
      6 C         144.4991  142.2168  158.4471 C.ar    1  UNL1        0.1545
      7 O         144.8524  142.2395  159.9047 O.3     1  UNL1       -0.4528
      8 C         144.6353  142.1330  161.3851 C.ar    1  UNL1        0.1454
      9 C         145.5456  142.2809  162.8459 C.ar    1  UNL1        0.0375
     10 C         145.1405  142.1338  164.2826 C.ar    1  UNL1        0.0032
     11 C         143.7201  141.8007  164.6311 C.ar    1  UNL1        0.0014
     12 C         143.3159  141.6538  166.0681 C.ar    1  UNL1        0.0001
     13 C         141.8957  141.3207  166.4175 C.ar    1  UNL1        0.0013
     14 C         140.8796  141.1345  165.3300 C.ar    1  UNL1        0.0149
     15 C         141.2838  141.2814  163.8929 C.ar    1  UNL1        0.0539
     16 C         142.7040  141.6145  163.5435 C.ar    1  UNL1        0.0167
     17 C         143.8809  141.9136  162.6628 C.ar    1  UNL1        0.0387
     18 N         139.8365  140.9650  163.6579 N.am    1  UNL1       -0.2575
     19 C         138.5655  140.6505  164.3898 C.3     1  UNL1        0.1001
     20 C         137.4827  140.4466  163.3720 C.3     1  UNL1        0.0470
     21 C         137.7126  140.5649  161.6613 C.3     1  UNL1        0.1340
     22 N         137.3593  140.5422  160.2037 N.3     1  UNL1       -0.2863
     23 C         137.5764  140.6487  158.7233 C.3     1  UNL1        0.1151
     24 C         138.3308  140.8682  157.4455 C.ar    1  UNL1        0.0739
     25 C         137.1398  140.6346  156.5641 C.ar    1  UNL1        0.1147
     26 N         137.5806  140.7893  155.1387 N.ar    1  UNL1       -0.2226
     27 C         139.0441  141.1185  155.1392 C.ar    1  UNL1        0.1786
     28 N         139.5077  141.1673  156.5649 N.ar    1  UNL1       -0.3070
     29 C         140.9279  141.5004  156.2155 C.3     1  UNL1        0.1341
     30 C         138.5824  140.7134  162.8743 C.2     1  UNL1        0.2437
     31 O         138.2140  140.6033  163.5725 O.2     1  UNL1       -0.2731
     32 H         136.6027  141.2242  160.2582 H       1  UNL1        0.1240
     33 N         148.3436  143.0988  158.0094 N.1     1  UNL1       -0.1907
     34 C         146.9136  142.7900  157.6781 C.1     1  UNL1        0.1035
@<TRIPOS>BOND
     1    33    34    3
     2    34     1    1
     3     1     2   ar
     4     2     3   ar
     5     3     4   ar
     6     4     5   ar
     7     5     6   ar
     8     6     7    1
     9     7     8    1
    10     8     9   ar
    11     9    10   ar
    12    10    11   ar
    13    11    12   ar
    14    12    13   ar
    15    13    14   ar
    16    14    15   ar
    17    15    16   ar
    18    16    17   ar
    19    15    18    1
    20    18    19    1
    21    19    20    1
    22    21    20    1
    23    21    22    1
    24    22    23    1
    25    23    24    1
    26    24    25   ar
    27    25    26   ar
    28    26    27   ar
    29    27    28   ar
    30    28    29    1
    31    21    30    1
    32    30    31    2
    33     6     1   ar
    34    17     8   ar
    35    30    18   am
    36    29     4    1
    37    16    11   ar
    38    28    24   ar
    39    22    32    1
@<TRIPOS>MOLECULE
*****
 34 39 0 0 0
SMALL
GASTEIGER

@<TRIPOS>ATOM
      1 C         135.4156  140.8369  156.2891 C.ar    1  UNL1        0.1028
      2 C         135.2877  141.5133  154.9565 C.ar    1  UNL1        0.0131
      3 C         136.4444  142.2840  154.3925 C.ar    1  UNL1       -0.0015
      4 C         137.8652  142.5701  154.9099 C.ar    1  UNL1        0.0035
      5 C         137.0321  141.7323  155.8340 C.ar    1  UNL1        0.0358
      6 C         136.7001  140.9312  157.0579 C.ar    1  UNL1        0.1545
      7 O         136.9199  140.2890  158.3955 O.3     1  UNL1       -0.4528
      8 C         137.6580  139.9032  159.6431 C.ar    1  UNL1        0.1454
      9 C         137.3810  139.0021  161.0907 C.ar    1  UNL1        0.0375
     10 C         138.2711  138.7177  162.2641 C.ar    1  UNL1        0.0032
     11 C         139.6690  139.2607  162.2940 C.ar    1  UNL1        0.0014
     12 C         140.5584  138.9758  163.4678 C.ar    1  UNL1        0.0001
     13 C         141.9565  139.5184  163.4987 C.ar    1  UNL1        0.0013
     14 C         142.4652  140.3459  162.3558 C.ar    1  UNL1        0.0149
     15 C         141.5758  140.6309  161.1819 C.ar    1  UNL1        0.0539
     16 C         140.1777  140.0882  161.1511 C.ar    1  UNL1        0.0167
     17 C         138.8020  139.8327  160.6107 C.ar    1  UNL1        0.0387
     18 N         142.7834  141.3780  160.6985 N.am    1  UNL1       -0.2575
     19 C         144.1886  141.7259  161.0913 C.3     1  UNL1        0.1001
     20 C         144.7826  142.5614  159.9963 C.3     1  UNL1        0.0470
     21 C         143.9485  143.0169  158.5505 C.3     1  UNL1        0.1340
     22 N         143.7287  143.6591  157.2129 N.3     1  UNL1       -0.2863
     23 C         142.9906  144.0449  155.9653 C.3     1  UNL1        0.1151
     24 C         141.8466  144.1154  154.9977 C.ar    1  UNL1        0.0739
     25 C         142.5875  144.9562  154.0006 C.ar    1  UNL1        0.1147
     26 N         141.6696  145.2203  152.8440 N.ar    1  UNL1       -0.2226
     27 C         140.3615  144.5427  153.1263 C.ar    1  UNL1        0.1786
     28 N         140.4709  143.8598  154.4573 N.ar    1  UNL1       -0.3070
     29 C         139.0728  143.3172  154.4265 C.3     1  UNL1        0.1341
     30 C         143.6166  142.2158  159.7745 C.2     1  UNL1        0.2437
     31 O         144.2026  142.1570  160.3117 O.2     1  UNL1       -0.2731
     32 H         144.5262  143.2276  156.7458 H       1  UNL1        0.1240
     33 N         133.1022  139.2955  157.4172 N.1     1  UNL1       -0.1907
     34 C         134.2589  140.0662  156.8531 C.1     1  UNL1        0.1035
@<TRIPOS>BOND
     1    33    34    3
     2    34     1    1
     3     1     2   ar
     4     2     3   ar
     5     3     4   ar
     6     4     5   ar
     7     5     6   ar
     8     6     7    1
     9     7     8    1
    10     8     9   ar
    11     9    10   ar
    12    10    11   ar
    13    11    12   ar
    14    12    13   ar
    15    13    14   ar
    16    14    15   ar
    17    15    16   ar
    18    16    17   ar
    19    15    18    1
    20    18    19    1
    21    19    20    1
    22    21    20    1
    23    21    22    1
    24    22    23    1
    25    23    24    1
    26    24    25   ar
    27    25    26   ar
    28    26    27   ar
    29    27    28   ar
    30    28    29    1
    31    21    30    1
    32    30    31    2
    33     6     1   ar
    34    17     8   ar
    35    30    18   am
    36    29     4    1
    37    16    11   ar
    38    28    24   ar
    39    22    32    1
@<TRIPOS>MOLECULE
*****
 34 39 0 0 0
SMALL
GASTEIGER

@<TRIPOS>ATOM
      1 C         141.4483  136.2981  155.6078 C.ar    1  UNL1        0.1028
      2 C         140.7725  136.4074  154.2732 C.ar    1  UNL1        0.0131
      3 C         140.1654  137.7103  153.8443 C.ar    1  UNL1       -0.0015
      4 C         140.0643  139.0910  154.5164 C.ar    1  UNL1        0.0035
      5 C         140.7773  138.0586  155.3383 C.ar    1  UNL1        0.0358
      6 C         141.5172  137.4918  156.5136 C.ar    1  UNL1        0.1545
      7 O         142.1712  137.4771  157.8634 O.3     1  UNL1       -0.4528
      8 C         142.6400  138.0166  159.1822 C.ar    1  UNL1        0.1454
      9 C         143.4843  137.4663  160.5853 C.ar    1  UNL1        0.0375
     10 C         143.8732  138.1771  161.8476 C.ar    1  UNL1        0.0032
     11 C         143.5185  139.6226  162.0341 C.ar    1  UNL1        0.0014
     12 C         143.9078  140.3325  163.2968 C.ar    1  UNL1        0.0001
     13 C         143.5535  141.7780  163.4843 C.ar    1  UNL1        0.0013
     14 C         142.8100  142.5135  162.4091 C.ar    1  UNL1        0.0149
     15 C         142.4207  141.8036  161.1464 C.ar    1  UNL1        0.0539
     16 C         142.7749  140.3581  160.9590 C.ar    1  UNL1        0.0167
     17 C         142.8519  139.0283  160.2692 C.ar    1  UNL1        0.0387
     18 N         141.8430  143.1446  160.8030 N.am    1  UNL1       -0.2575
     19 C         141.6796  144.5318  161.3498 C.3     1  UNL1        0.1001
     20 C         140.9389  145.3471  160.3316 C.3     1  UNL1        0.0470
     21 C         140.3901  144.7439  158.8058 C.3     1  UNL1        0.1340
     22 N         139.7361  144.7586  157.4560 N.3     1  UNL1       -0.2863
     23 C         139.2673  144.2191  156.1372 C.3     1  UNL1        0.1151
     24 C         139.0553  143.2074  155.0502 C.ar    1  UNL1        0.0739
     25 C         138.3279  144.1574  154.1455 C.ar    1  UNL1        0.1147
     26 N         137.9553  143.4146  152.8967 N.ar    1  UNL1       -0.2226
     27 C         138.4525  142.0057  153.0295 C.ar    1  UNL1        0.1786
     28 N         139.1324  141.8776  154.3605 N.ar    1  UNL1       -0.3070
     29 C         139.4867  140.4321  154.1730 C.3     1  UNL1        0.1341
     30 C         141.1300  144.1772  159.9811 C.2     1  UNL1        0.2437
     31 O         141.2607  144.6878  160.5791 O.2     1  UNL1       -0.2731
     32 H         140.2727  145.5387  157.0767 H       1  UNL1        0.1240
     33 N         142.6625  133.6924  156.4656 N.1     1  UNL1       -0.1907
     34 C         142.0554  134.9952  156.0368 C.1     1  UNL1        0.1035
@<TRIPOS>BOND
     1    33    34    3
     2    34     1    1
     3     1     2   ar
     4     2     3   ar
     5     3     4   ar
     6     4     5   ar
     7     5     6   ar
     8     6     7    1
     9     7     8    1
    10     8     9   ar
    11     9    10   ar
    12    10    11   ar
    13    11    12   ar
    14    12    13   ar
    15    13    14   ar
    16    14    15   ar
    17    15    16   ar
    18    16    17   ar
    19    15    18    1
    20    18    19    1
    21    19    20    1
    22    21    20    1
    23    21    22    1
    24    22    23    1
    25    23    24    1
    26    24    25   ar
    27    25    26   ar
    28    26    27   ar
    29    27    28   ar
    30    28    29    1
    31    21    30    1
    32    30    31    2
    33     6     1   ar
    34    17     8   ar
    35    30    18   am
    36    29     4    1
    37    16    11   ar
    38    28    24   ar
    39    22    32    1
@<TRIPOS>MOLECULE
*****
 34 39 0 0 0
SMALL
GASTEIGER

@<TRIPOS>ATOM
      1 C         146.5501  142.4435  157.4818 C.ar    1  UNL1        0.1028
      2 C         146.7272  141.8057  156.1358 C.ar    1  UNL1        0.0131
      3 C         145.7091  140.8273  155.6296 C.ar    1  UNL1       -0.0015
      4 C         144.4024  140.2727  156.2241 C.ar    1  UNL1        0.0035
      5 C         145.1118  141.2543  157.1090 C.ar    1  UNL1        0.0358
      6 C         145.3548  142.1031  158.3217 C.ar    1  UNL1        0.1545
      7 O         145.0945  142.6897  159.6774 O.3     1  UNL1       -0.4528
      8 C         144.3704  142.9250  160.9699 C.ar    1  UNL1        0.1454
      9 C         144.5534  143.8612  162.4102 C.ar    1  UNL1        0.0375
     10 C         143.6956  143.9678  163.6360 C.ar    1  UNL1        0.0032
     11 C         142.4321  143.1659  163.7392 C.ar    1  UNL1        0.0014
     12 C         141.5749  143.2732  164.9655 C.ar    1  UNL1        0.0001
     13 C         140.3113  142.4717  165.0697 C.ar    1  UNL1        0.0013
     14 C         139.9049  141.5628  163.9477 C.ar    1  UNL1        0.0149
     15 C         140.7621  141.4555  162.7215 C.ar    1  UNL1        0.0539
     16 C         142.0258  142.2571  162.6173 C.ar    1  UNL1        0.0167
     17 C         143.2928  142.7731  162.0022 C.ar    1  UNL1        0.0387
     18 N         139.6944  140.4905  162.2989 N.am    1  UNL1       -0.2575
     19 C         138.4075  139.8783  162.7672 C.3     1  UNL1        0.1001
     20 C         137.9220  138.9452  161.6979 C.3     1  UNL1        0.0470
     21 C         138.7419  138.6601  160.2013 C.3     1  UNL1        0.1340
     22 N         139.0023  138.0734  158.8455 N.3     1  UNL1       -0.2863
     23 C         139.7264  137.8382  157.5531 C.3     1  UNL1        0.1151
     24 C         140.8040  137.9901  156.5208 C.ar    1  UNL1        0.0739
     25 C         140.1813  137.0234  155.5576 C.ar    1  UNL1        0.1147
     26 N         141.0635  136.9420  154.3472 N.ar    1  UNL1       -0.2226
     27 C         142.2314  137.8584  154.5623 C.ar    1  UNL1        0.1786
     28 N         142.0710  138.5061  155.9057 N.ar    1  UNL1       -0.3070
     29 C         143.3346  139.3077  155.8015 C.3     1  UNL1        0.1341
     30 C         138.9849  139.5089  161.4140 C.2     1  UNL1        0.2437
     31 O         138.4310  139.4532  161.9845 O.2     1  UNL1       -0.2731
     32 H         138.1108  138.3439  158.4302 H       1  UNL1        0.1240
     33 N         148.5864  144.4002  158.4942 N.1     1  UNL1       -0.1907
     34 C         147.5682  143.4219  157.9880 C.1     1  UNL1        0.1035
@<TRIPOS>BOND
     1    33    34    3
     2    34     1    1
     3     1     2   ar
     4     2     3   ar
     5     3     4   ar
     6     4     5   ar
     7     5     6   ar
     8     6     7    1
     9     7     8    1
    10     8     9   ar
    11     9    10   ar
    12    10    11   ar
    13    11    12   ar
    14    12    13   ar
    15    13    14   ar
    16    14    15   ar
    17    15    16   ar
    18    16    17   ar
    19    15    18    1
    20    18    19    1
    21    19    20    1
    22    21    20    1
    23    21    22    1
    24    22    23    1
    25    23    24    1
    26    24    25   ar
    27    25    26   ar
    28    26    27   ar
    29    27    28   ar
    30    28    29    1
    31    21    30    1
    32    30    31    2
    33     6     1   ar
    34    17     8   ar
    35    30    18   am
    36    29     4    1
    37    16    11   ar
    38    28    24   ar
    39    22    32    1
@<TRIPOS>MOLECULE
*****
 34 39 0 0 0
SMALL
GASTEIGER

@<TRIPOS>ATOM
      1 C         138.4008  142.8864  154.8095 C.ar    1  UNL1        0.1028
      2 C         138.1627  141.9037  153.7016 C.ar    1  UNL1        0.0131
      3 C         138.7456  140.5241  153.7845 C.ar    1  UNL1       -0.0015
      4 C         139.6125  139.8143  154.8395 C.ar    1  UNL1        0.0035
      5 C         139.2571  141.2293  155.1877 C.ar    1  UNL1        0.0358
      6 C         139.2220  142.4896  156.0004 C.ar    1  UNL1        0.1545
      7 O         139.5127  143.4031  157.1540 O.3     1  UNL1       -0.4528
      8 C         140.0849  143.8309  158.4730 C.ar    1  UNL1        0.1454
      9 C         140.1087  145.2294  159.4869 C.ar    1  UNL1        0.0375
     10 C         140.7575  145.4758  160.8167 C.ar    1  UNL1        0.0032
     11 C         141.5507  144.3874  161.4773 C.ar    1  UNL1        0.0014
     12 C         142.1991  144.6348  162.8071 C.ar    1  UNL1        0.0001
     13 C         142.9925  143.5470  163.4685 C.ar    1  UNL1        0.0013
     14 C         143.1375  142.2121  162.8002 C.ar    1  UNL1        0.0149
     15 C         142.4891  141.9648  161.4704 C.ar    1  UNL1        0.0539
     16 C         141.6957  143.0525  160.8090 C.ar    1  UNL1        0.0167
     17 C         140.8514  143.7077  159.7564 C.ar    1  UNL1        0.0387
     18 N         143.1108  140.6102  161.6399 N.am    1  UNL1       -0.2575
     19 C         143.9533  139.8113  162.5896 C.3     1  UNL1        0.1001
     20 C         144.1524  138.4475  161.9979 C.3     1  UNL1        0.0470
     21 C         143.5013  137.9349  160.4791 C.3     1  UNL1        0.1340
     22 N         143.2106  137.0213  159.3254 N.3     1  UNL1       -0.2863
     23 C         142.6384  136.5936  158.0065 C.3     1  UNL1        0.1151
     24 C         141.8719  136.7167  156.7230 C.ar    1  UNL1        0.0739
     25 C         142.1661  135.3157  156.2753 C.ar    1  UNL1        0.1147
     26 N         141.5037  135.1051  154.9461 N.ar    1  UNL1       -0.2226
     27 C         140.8001  136.3760  154.5723 C.ar    1  UNL1        0.1786
     28 N         141.0276  137.3721  155.6705 N.ar    1  UNL1       -0.3070
     29 C         140.2342  138.4598  155.0091 C.3     1  UNL1        0.1341
     30 C         143.4663  139.1951  161.2919 C.2     1  UNL1        0.2437
     31 O         143.8641  139.1659  161.9820 O.2     1  UNL1       -0.2731
     32 H         142.8057  136.2649  159.8771 H       1  UNL1        0.1240
     33 N         137.2349  145.6456  154.6437 N.1     1  UNL1       -0.1907
     34 C         137.8178  144.2660  154.7266 C.1     1  UNL1        0.1035
@<TRIPOS>BOND
     1    33    34    3
     2    34     1    1
     3     1     2   ar
     4     2     3   ar
     5     3     4   ar
     6     4     5   ar
     7     5     6   ar
     8     6     7    1
     9     7     8    1
    10     8     9   ar
    11     9    10   ar
    12    10    11   ar
    13    11    12   ar
    14    12    13   ar
    15    13    14   ar
    16    14    15   ar
    17    15    16   ar
    18    16    17   ar
    19    15    18    1
    20    18    19    1
    21    19    20    1
    22    21    20    1
    23    21    22    1
    24    22    23    1
    25    23    24    1
    26    24    25   ar
    27    25    26   ar
    28    26    27   ar
    29    27    28   ar
    30    28    29    1
    31    21    30    1
    32    30    31    2
    33     6     1   ar
    34    17     8   ar
    35    30    18   am
    36    29     4    1
    37    16    11   ar
    38    28    24   ar
    39    22    32    1
