@<TRIPOS>MOLECULE
*****
 32 36 0 0 0
SMALL
GASTEIGER

@<TRIPOS>ATOM
      1 C         139.7790  144.5414  162.4510 C.ar    1  UNL1        0.2224
      2 N         140.6271  145.0439  163.5815 N.ar    1  UNL1       -0.1127
      3 N         140.5460  144.0479  164.7001 N.ar    1  UNL1       -0.1273
      4 C         139.6477  142.9297  164.2609 C.ar    1  UNL1        0.1704
      5 N         139.1737  143.2348  162.8708 N.ar    1  UNL1       -0.2796
      6 C         138.2602  142.4283  161.9962 C.3     1  UNL1        0.1574
      7 C         137.5949  141.1176  162.2955 C.3     1  UNL1        0.2299
      8 O         137.6790  140.2898  163.5436 O.3     1  UNL1       -0.4733
      9 C         138.4490  140.5680  164.8004 C.ar    1  UNL1        0.1415
     10 C         138.2588  139.4774  165.8125 C.ar    1  UNL1        0.0370
     11 C         138.9447  139.5617  167.1438 C.ar    1  UNL1        0.0031
     12 C         139.8209  140.7366  167.4630 C.ar    1  UNL1        0.0004
     13 C         140.0111  141.8272  166.4510 C.ar    1  UNL1        0.0061
     14 C         139.3252  141.7429  165.1197 C.ar    1  UNL1        0.0699
     15 C         140.5068  140.8209  168.7944 C.ar    1  UNL1        0.0031
     16 C         141.6575  139.9099  169.1042 C.ar    1  UNL1        0.0207
     17 C         142.3434  139.9942  170.4356 C.ar    1  UNL1        0.0989
     18 N         141.8786  140.9894  171.4571 N.ar    1  UNL1       -0.2423
     19 C         140.7278  141.9004  171.1472 C.ar    1  UNL1        0.0989
     20 C         140.0419  141.8161  169.8159 C.ar    1  UNL1        0.0207
     21 N         139.5726  145.2254  161.1320 N.pl3   1  UNL1       -0.2826
     22 H         138.8235  145.8535  161.0152 H       1  UNL1        0.1551
     23 C         141.2570  145.3906  157.5425 C.ar    1  UNL1        0.0726
     24 C         142.3768  144.4065  157.7092 C.ar    1  UNL1        0.0039
     25 C         142.5617  143.6954  159.0170 C.ar    1  UNL1        0.0012
     26 C         141.6270  143.9684  160.1579 C.ar    1  UNL1        0.0147
     27 C         140.5073  144.9524  159.9911 C.ar    1  UNL1        0.0504
     28 C         140.3223  145.6635  158.6834 C.ar    1  UNL1        0.0185
     29 F         140.8870  146.8127  154.9271 F       1  UNL1       -0.1659
     30 C         141.0720  146.1017  156.2347 C.3     1  UNL1        0.4186
     31 F         142.3707  145.5347  155.7428 F       1  UNL1       -0.1659
     32 F         139.7734  146.6686  156.7268 F       1  UNL1       -0.1659
@<TRIPOS>BOND
     1    29    30    1
     2    30    31    1
     3    30    32    1
     4    30    23    1
     5    23    24   ar
     6    24    25   ar
     7    25    26   ar
     8    26    27   ar
     9    27    21    1
    10    21     1    1
    11     1     2   ar
    12     2     3   ar
    13     3     4   ar
    14     4     5   ar
    15     5     6    1
    16     6     7    1
    17     7     8    1
    18     8     9    1
    19     9    10   ar
    20    10    11   ar
    21    11    12   ar
    22    12    15    1
    23    15    16   ar
    24    16    17   ar
    25    17    18   ar
    26    18    19   ar
    27    19    20   ar
    28    12    13   ar
    29    13    14   ar
    30    27    28   ar
    31    28    23   ar
    32     5     1   ar
    33    14     9   ar
    34    14     4    1
    35    20    15   ar
    36    21    22    1
@<TRIPOS>MOLECULE
*****
 32 36 0 0 0
SMALL
GASTEIGER

@<TRIPOS>ATOM
      1 C         139.7174  144.5992  162.4534 C.ar    1  UNL1        0.2224
      2 N         140.5551  145.1053  163.5901 N.ar    1  UNL1       -0.1127
      3 N         140.4883  144.0980  164.6995 N.ar    1  UNL1       -0.1273
      4 C         139.6093  142.9692  164.2483 C.ar    1  UNL1        0.1704
      5 N         139.1330  143.2791  162.8602 N.ar    1  UNL1       -0.2796
      6 C         138.2344  142.4656  161.9764 C.3     1  UNL1        0.1574
      7 C         137.5904  141.1415  162.2626 C.3     1  UNL1        0.2299
      8 O         137.6858  140.3038  163.5033 O.3     1  UNL1       -0.4733
      9 C         138.4489  140.5833  164.7641 C.ar    1  UNL1        0.1415
     10 C         138.2748  139.4805  165.7659 C.ar    1  UNL1        0.0370
     11 C         138.9568  139.5640  167.0992 C.ar    1  UNL1        0.0031
     12 C         139.8128  140.7502  167.4308 C.ar    1  UNL1        0.0004
     13 C         139.9869  141.8530  166.4291 C.ar    1  UNL1        0.0061
     14 C         139.3049  141.7695  165.0957 C.ar    1  UNL1        0.0699
     15 C         140.4948  140.8337  168.7643 C.ar    1  UNL1        0.0031
     16 C         140.0053  141.8044  169.7976 C.ar    1  UNL1        0.0207
     17 C         140.6873  141.8879  171.1311 C.ar    1  UNL1        0.0989
     18 N         141.8589  141.0005  171.4310 N.ar    1  UNL1       -0.2423
     19 C         142.3484  140.0297  170.3976 C.ar    1  UNL1        0.0989
     20 C         141.6664  139.9463  169.0642 C.ar    1  UNL1        0.0207
     21 N         139.5021  145.2917  161.1403 N.pl3   1  UNL1       -0.2826
     22 H         138.7421  145.9072  161.0272 H       1  UNL1        0.1551
     23 C         142.5044  143.8114  159.0086 C.ar    1  UNL1        0.0726
     24 C         142.3300  144.5558  157.7181 C.ar    1  UNL1        0.0039
     25 C         141.2128  145.5456  157.5684 C.ar    1  UNL1        0.0012
     26 C         140.2703  145.7909  158.7091 C.ar    1  UNL1        0.0147
     27 C         140.4447  145.0464  159.9996 C.ar    1  UNL1        0.0504
     28 C         141.5618  144.0566  160.1493 C.ar    1  UNL1        0.0185
     29 F         144.7386  141.8318  159.3080 F       1  UNL1       -0.1659
     30 C         143.6216  142.8216  159.1583 C.3     1  UNL1        0.4186
     31 F         144.1134  143.1689  157.7845 F       1  UNL1       -0.1659
     32 F         143.1297  142.4743  160.5321 F       1  UNL1       -0.1659
@<TRIPOS>BOND
     1    29    30    1
     2    30    31    1
     3    30    32    1
     4    30    23    1
     5    23    24   ar
     6    24    25   ar
     7    25    26   ar
     8    26    27   ar
     9    27    21    1
    10    21     1    1
    11     1     2   ar
    12     2     3   ar
    13     3     4   ar
    14     4     5   ar
    15     5     6    1
    16     6     7    1
    17     7     8    1
    18     8     9    1
    19     9    10   ar
    20    10    11   ar
    21    11    12   ar
    22    12    15    1
    23    15    16   ar
    24    16    17   ar
    25    17    18   ar
    26    18    19   ar
    27    19    20   ar
    28    12    13   ar
    29    13    14   ar
    30    27    28   ar
    31    28    23   ar
    32     5     1   ar
    33    14     9   ar
    34    14     4    1
    35    20    15   ar
    36    21    22    1
@<TRIPOS>MOLECULE
*****
 32 36 0 0 0
SMALL
GASTEIGER

@<TRIPOS>ATOM
      1 C         143.6019  138.6852  162.8436 C.ar    1  UNL1        0.2224
      2 N         144.3118  139.4249  163.9386 N.ar    1  UNL1       -0.1127
      3 N         143.3285  139.6719  165.0441 N.ar    1  UNL1       -0.1273
      4 C         142.0109  139.0849  164.6323 C.ar    1  UNL1        0.1704
      5 N         142.1800  138.4752  163.2723 N.ar    1  UNL1       -0.2796
      6 C         141.1593  137.7674  162.4313 C.3     1  UNL1        0.1574
      7 C         139.7175  137.4945  162.7426 C.3     1  UNL1        0.2299
      8 O         138.9404  137.8621  163.9718 O.3     1  UNL1       -0.4733
      9 C         139.4130  138.5933  165.1933 C.ar    1  UNL1        0.1415
     10 C         138.3095  138.7553  166.1962 C.ar    1  UNL1        0.0370
     11 C         138.5725  139.4615  167.4932 C.ar    1  UNL1        0.0031
     12 C         139.9391  140.0057  167.7871 C.ar    1  UNL1        0.0004
     13 C         141.0426  139.8437  166.7841 C.ar    1  UNL1        0.0061
     14 C         140.7795  139.1375  165.4872 C.ar    1  UNL1        0.0699
     15 C         140.2021  140.7119  169.0841 C.ar    1  UNL1        0.0031
     16 C         139.9335  142.1827  169.2052 C.ar    1  UNL1        0.0207
     17 C         140.1965  142.8889  170.5022 C.ar    1  UNL1        0.0989
     18 N         140.7281  142.1243  171.6781 N.ar    1  UNL1       -0.2423
     19 C         140.9966  140.6534  171.5570 C.ar    1  UNL1        0.0989
     20 C         140.7336  139.9473  170.2600 C.ar    1  UNL1        0.0207
     21 N         144.2078  138.2348  161.5474 N.pl3   1  UNL1       -0.2826
     22 H         144.9762  137.6194  161.5507 H       1  UNL1        0.1551
     23 C         142.3737  138.2532  158.0281 C.ar    1  UNL1        0.0726
     24 C         142.5129  139.6963  157.6434 C.ar    1  UNL1        0.0039
     25 C         143.2171  140.6523  158.5601 C.ar    1  UNL1        0.0012
     26 C         143.7820  140.1651  159.8614 C.ar    1  UNL1        0.0147
     27 C         143.6428  138.7220  160.2461 C.ar    1  UNL1        0.0504
     28 C         142.9386  137.7660  159.3294 C.ar    1  UNL1        0.0185
     29 F         140.9652  136.3414  156.1948 F       1  UNL1       -0.1659
     30 C         141.6695  137.2972  157.1114 C.3     1  UNL1        0.4186
     31 F         142.9834  136.6626  156.7639 F       1  UNL1       -0.1659
     32 F         140.3555  137.9319  157.4590 F       1  UNL1       -0.1659
@<TRIPOS>BOND
     1    29    30    1
     2    30    31    1
     3    30    32    1
     4    30    23    1
     5    23    24   ar
     6    24    25   ar
     7    25    26   ar
     8    26    27   ar
     9    27    21    1
    10    21     1    1
    11     1     2   ar
    12     2     3   ar
    13     3     4   ar
    14     4     5   ar
    15     5     6    1
    16     6     7    1
    17     7     8    1
    18     8     9    1
    19     9    10   ar
    20    10    11   ar
    21    11    12   ar
    22    12    15    1
    23    15    16   ar
    24    16    17   ar
    25    17    18   ar
    26    18    19   ar
    27    19    20   ar
    28    12    13   ar
    29    13    14   ar
    30    27    28   ar
    31    28    23   ar
    32     5     1   ar
    33    14     9   ar
    34    14     4    1
    35    20    15   ar
    36    21    22    1
@<TRIPOS>MOLECULE
*****
 32 36 0 0 0
SMALL
GASTEIGER

@<TRIPOS>ATOM
      1 C         143.5816  138.6398  162.8392 C.ar    1  UNL1        0.2224
      2 N         144.3350  139.3491  163.9251 N.ar    1  UNL1       -0.1127
      3 N         143.3838  139.6095  165.0553 N.ar    1  UNL1       -0.1273
      4 C         142.0425  139.0611  164.6679 C.ar    1  UNL1        0.1704
      5 N         142.1648  138.4618  163.2983 N.ar    1  UNL1       -0.2796
      6 C         141.1072  137.7896  162.4738 C.3     1  UNL1        0.1574
      7 C         139.6663  137.5506  162.8152 C.3     1  UNL1        0.2299
      8 O         138.9270  137.9249  164.0656 O.3     1  UNL1       -0.4733
      9 C         139.4460  138.6306  165.2833 C.ar    1  UNL1        0.1415
     10 C         138.3701  138.8102  166.3128 C.ar    1  UNL1        0.0370
     11 C         138.6807  139.4955  167.6105 C.ar    1  UNL1        0.0031
     12 C         140.0672  140.0012  167.8785 C.ar    1  UNL1        0.0004
     13 C         141.1431  139.8216  166.8489 C.ar    1  UNL1        0.0061
     14 C         140.8325  139.1363  165.5513 C.ar    1  UNL1        0.0699
     15 C         140.3778  140.6865  169.1762 C.ar    1  UNL1        0.0031
     16 C         139.5835  141.8863  169.5996 C.ar    1  UNL1        0.0207
     17 C         139.8940  142.5716  170.8973 C.ar    1  UNL1        0.0989
     18 N         140.9990  142.0570  171.7716 N.ar    1  UNL1       -0.2423
     19 C         141.7933  140.8570  171.3481 C.ar    1  UNL1        0.0989
     20 C         141.4827  140.1718  170.0505 C.ar    1  UNL1        0.0207
     21 N         144.1460  138.1878  161.5250 N.pl3   1  UNL1       -0.2826
     22 H         144.8530  137.5030  161.5023 H       1  UNL1        0.1551
     23 C         143.2855  140.8370  158.6982 C.ar    1  UNL1        0.0726
     24 C         142.6077  139.9616  157.6861 C.ar    1  UNL1        0.0039
     25 C         142.4427  138.4949  157.9537 C.ar    1  UNL1        0.0012
     26 C         142.9555  137.9036  159.2333 C.ar    1  UNL1        0.0147
     27 C         143.6333  138.7790  160.2454 C.ar    1  UNL1        0.0504
     28 C         143.7983  140.2457  159.9778 C.ar    1  UNL1        0.0185
     29 F         143.6156  143.7703  158.1630 F       1  UNL1       -0.1659
     30 C         143.4506  142.3037  158.4306 C.3     1  UNL1        0.4186
     31 F         142.1059  142.3338  157.7667 F       1  UNL1       -0.1659
     32 F         144.7953  142.2734  159.0946 F       1  UNL1       -0.1659
@<TRIPOS>BOND
     1    29    30    1
     2    30    31    1
     3    30    32    1
     4    30    23    1
     5    23    24   ar
     6    24    25   ar
     7    25    26   ar
     8    26    27   ar
     9    27    21    1
    10    21     1    1
    11     1     2   ar
    12     2     3   ar
    13     3     4   ar
    14     4     5   ar
    15     5     6    1
    16     6     7    1
    17     7     8    1
    18     8     9    1
    19     9    10   ar
    20    10    11   ar
    21    11    12   ar
    22    12    15    1
    23    15    16   ar
    24    16    17   ar
    25    17    18   ar
    26    18    19   ar
    27    19    20   ar
    28    12    13   ar
    29    13    14   ar
    30    27    28   ar
    31    28    23   ar
    32     5     1   ar
    33    14     9   ar
    34    14     4    1
    35    20    15   ar
    36    21    22    1
@<TRIPOS>MOLECULE
*****
 32 36 0 0 0
SMALL
GASTEIGER

@<TRIPOS>ATOM
      1 C         141.4547  144.9154  161.5352 C.ar    1  UNL1        0.2224
      2 N         140.4783  145.3919  162.5693 N.ar    1  UNL1       -0.1127
      3 N         140.6030  144.5014  163.7699 N.ar    1  UNL1       -0.1273
      4 C         141.6566  143.4744  163.4777 C.ar    1  UNL1        0.1704
      5 N         142.1829  143.7303  162.0966 N.ar    1  UNL1       -0.2796
      6 C         143.2435  142.9806  161.3462 C.3     1  UNL1        0.1574
      7 C         144.0397  141.7898  161.7915 C.3     1  UNL1        0.2299
      8 O         143.9718  141.0548  163.0973 O.3     1  UNL1       -0.4733
      9 C         143.0911  141.3288  164.2803 C.ar    1  UNL1        0.1415
     10 C         143.3424  140.3502  165.3889 C.ar    1  UNL1        0.0370
     11 C         142.5632  140.4485  166.6669 C.ar    1  UNL1        0.0031
     12 C         141.5329  141.5253  166.8362 C.ar    1  UNL1        0.0004
     13 C         141.2816  142.5039  165.7275 C.ar    1  UNL1        0.0061
     14 C         142.0607  142.4056  164.4495 C.ar    1  UNL1        0.0699
     15 C         140.7537  141.6236  168.1143 C.ar    1  UNL1        0.0031
     16 C         139.9271  140.4618  168.5799 C.ar    1  UNL1        0.0207
     17 C         139.1479  140.5601  169.8580 C.ar    1  UNL1        0.0989
     18 N         139.1955  141.8202  170.6703 N.ar    1  UNL1       -0.2423
     19 C         140.0222  142.9820  170.2046 C.ar    1  UNL1        0.0989
     20 C         140.8013  142.8837  168.9266 C.ar    1  UNL1        0.0207
     21 N         141.6659  145.5181  160.1779 N.pl3   1  UNL1       -0.2826
     22 H         142.3493  146.2151  160.0498 H       1  UNL1        0.1551
     23 C         139.8696  145.4695  156.6395 C.ar    1  UNL1        0.0726
     24 C         139.1758  144.1406  156.6920 C.ar    1  UNL1        0.0039
     25 C         139.3120  143.2710  157.9066 C.ar    1  UNL1        0.0012
     26 C         140.1420  143.7301  159.0686 C.ar    1  UNL1        0.0147
     27 C         140.8359  145.0590  159.0160 C.ar    1  UNL1        0.0504
     28 C         140.6996  145.9286  157.8014 C.ar    1  UNL1        0.0185
     29 F         139.5971  147.2087  154.2104 F       1  UNL1       -0.1659
     30 C         139.7334  146.3391  155.4249 C.3     1  UNL1        0.4186
     31 F         141.2092  146.2292  155.1807 F       1  UNL1       -0.1659
     32 F         138.2575  146.4490  155.6692 F       1  UNL1       -0.1659
@<TRIPOS>BOND
     1    29    30    1
     2    30    31    1
     3    30    32    1
     4    30    23    1
     5    23    24   ar
     6    24    25   ar
     7    25    26   ar
     8    26    27   ar
     9    27    21    1
    10    21     1    1
    11     1     2   ar
    12     2     3   ar
    13     3     4   ar
    14     4     5   ar
    15     5     6    1
    16     6     7    1
    17     7     8    1
    18     8     9    1
    19     9    10   ar
    20    10    11   ar
    21    11    12   ar
    22    12    15    1
    23    15    16   ar
    24    16    17   ar
    25    17    18   ar
    26    18    19   ar
    27    19    20   ar
    28    12    13   ar
    29    13    14   ar
    30    27    28   ar
    31    28    23   ar
    32     5     1   ar
    33    14     9   ar
    34    14     4    1
    35    20    15   ar
    36    21    22    1
@<TRIPOS>MOLECULE
*****
 32 36 0 0 0
SMALL
GASTEIGER

@<TRIPOS>ATOM
      1 C         141.5468  144.8413  161.5306 C.ar    1  UNL1        0.2224
      2 N         140.5874  145.3562  162.5623 N.ar    1  UNL1       -0.1127
      3 N         140.6876  144.4727  163.7704 N.ar    1  UNL1       -0.1273
      4 C         141.7090  143.4118  163.4853 C.ar    1  UNL1        0.1704
      5 N         142.2399  143.6396  162.1010 N.ar    1  UNL1       -0.2796
      6 C         143.2757  142.8516  161.3552 C.3     1  UNL1        0.1574
      7 C         144.0364  141.6412  161.8095 C.3     1  UNL1        0.2299
      8 O         143.9490  140.9199  163.1217 O.3     1  UNL1       -0.4733
      9 C         143.0796  141.2307  164.3039 C.ar    1  UNL1        0.1415
     10 C         143.3034  140.2547  165.4206 C.ar    1  UNL1        0.0370
     11 C         142.5304  140.3876  166.6991 C.ar    1  UNL1        0.0031
     12 C         141.5334  141.4967  166.8609 C.ar    1  UNL1        0.0004
     13 C         141.3096  142.4727  165.7442 C.ar    1  UNL1        0.0061
     14 C         142.0826  142.3397  164.4657 C.ar    1  UNL1        0.0699
     15 C         140.7604  141.6296  168.1395 C.ar    1  UNL1        0.0031
     16 C         140.8229  142.9062  168.9245 C.ar    1  UNL1        0.0207
     17 C         140.0498  143.0392  170.2031 C.ar    1  UNL1        0.0989
     18 N         139.2142  141.8954  170.6966 N.ar    1  UNL1       -0.2423
     19 C         139.1517  140.6187  169.9116 C.ar    1  UNL1        0.0989
     20 C         139.9248  140.4858  168.6331 C.ar    1  UNL1        0.0207
     21 N         141.7732  145.4255  160.1677 N.pl3   1  UNL1       -0.2826
     22 H         142.4753  146.1023  160.0327 H       1  UNL1        0.1551
     23 C         139.2305  143.3064  157.9783 C.ar    1  UNL1        0.0726
     24 C         139.2431  144.0848  156.6962 C.ar    1  UNL1        0.0039
     25 C         140.0992  145.3103  156.5713 C.ar    1  UNL1        0.0012
     26 C         140.9425  145.7571  157.7285 C.ar    1  UNL1        0.0147
     27 C         140.9299  144.9787  159.0106 C.ar    1  UNL1        0.0504
     28 C         140.0738  143.7532  159.1355 C.ar    1  UNL1        0.0185
     29 F         137.5183  140.8556  158.2281 F       1  UNL1       -0.1659
     30 C         138.3744  142.0809  158.1032 C.3     1  UNL1        0.4186
     31 F         139.4992  141.3653  158.7907 F       1  UNL1       -0.1659
     32 F         137.2496  142.7967  157.4158 F       1  UNL1       -0.1659
@<TRIPOS>BOND
     1    29    30    1
     2    30    31    1
     3    30    32    1
     4    30    23    1
     5    23    24   ar
     6    24    25   ar
     7    25    26   ar
     8    26    27   ar
     9    27    21    1
    10    21     1    1
    11     1     2   ar
    12     2     3   ar
    13     3     4   ar
    14     4     5   ar
    15     5     6    1
    16     6     7    1
    17     7     8    1
    18     8     9    1
    19     9    10   ar
    20    10    11   ar
    21    11    12   ar
    22    12    15    1
    23    15    16   ar
    24    16    17   ar
    25    17    18   ar
    26    18    19   ar
    27    19    20   ar
    28    12    13   ar
    29    13    14   ar
    30    27    28   ar
    31    28    23   ar
    32     5     1   ar
    33    14     9   ar
    34    14     4    1
    35    20    15   ar
    36    21    22    1
@<TRIPOS>MOLECULE
*****
 32 36 0 0 0
SMALL
GASTEIGER

@<TRIPOS>ATOM
      1 C         139.9773  144.2943  163.7762 C.ar    1  UNL1        0.2224
      2 N         139.0511  145.2278  163.0546 N.ar    1  UNL1       -0.1127
      3 N         139.5020  145.3163  161.6267 N.ar    1  UNL1       -0.1273
      4 C         140.7069  144.4375  161.4659 C.ar    1  UNL1        0.1704
      5 N         141.0006  143.8059  162.7944 N.ar    1  UNL1       -0.2796
      6 C         142.0996  142.8500  163.1529 C.3     1  UNL1        0.1574
      7 C         143.1764  142.2897  162.2716 C.3     1  UNL1        0.2299
      8 O         143.4200  142.5470  160.8140 O.3     1  UNL1       -0.4733
      9 C         142.6471  143.4279  159.8777 C.ar    1  UNL1        0.1415
     10 C         143.2286  143.4020  158.4953 C.ar    1  UNL1        0.0370
     11 C         142.6027  144.2174  157.4030 C.ar    1  UNL1        0.0031
     12 C         141.3952  145.0588  157.6931 C.ar    1  UNL1        0.0004
     13 C         140.8137  145.0847  159.0755 C.ar    1  UNL1        0.0061
     14 C         141.4397  144.2693  160.1679 C.ar    1  UNL1        0.0699
     15 C         140.7693  145.8743  156.6007 C.ar    1  UNL1        0.0031
     16 C         141.2854  145.7687  155.1963 C.ar    1  UNL1        0.0207
     17 C         140.6595  146.5842  154.1039 C.ar    1  UNL1        0.0989
     18 N         139.5174  147.5052  154.4160 N.ar    1  UNL1       -0.2423
     19 C         139.0012  147.6107  155.8205 C.ar    1  UNL1        0.0989
     20 C         139.6272  146.7952  156.9128 C.ar    1  UNL1        0.0207
     21 N         139.8946  143.9158  165.2253 N.pl3   1  UNL1       -0.2826
     22 H         140.0676  144.5905  165.9210 H       1  UNL1        0.1551
     23 C         139.7440  140.5213  167.2757 C.ar    1  UNL1        0.0726
     24 C         138.8557  139.6958  166.3927 C.ar    1  UNL1        0.0039
     25 C         138.3137  140.2771  165.1206 C.ar    1  UNL1        0.0012
     26 C         138.6600  141.6837  164.7314 C.ar    1  UNL1        0.0147
     27 C         139.5483  142.5092  165.6144 C.ar    1  UNL1        0.0504
     28 C         140.0903  141.9279  166.8866 C.ar    1  UNL1        0.0185
     29 F         140.8280  139.3587  169.8200 F       1  UNL1       -0.1659
     30 C         140.2859  139.9400  168.5479 C.3     1  UNL1        0.4186
     31 F         138.9973  140.2627  169.2444 F       1  UNL1       -0.1659
     32 F         141.5746  139.6172  167.8514 F       1  UNL1       -0.1659
@<TRIPOS>BOND
     1    29    30    1
     2    30    31    1
     3    30    32    1
     4    30    23    1
     5    23    24   ar
     6    24    25   ar
     7    25    26   ar
     8    26    27   ar
     9    27    21    1
    10    21     1    1
    11     1     2   ar
    12     2     3   ar
    13     3     4   ar
    14     4     5   ar
    15     5     6    1
    16     6     7    1
    17     7     8    1
    18     8     9    1
    19     9    10   ar
    20    10    11   ar
    21    11    12   ar
    22    12    15    1
    23    15    16   ar
    24    16    17   ar
    25    17    18   ar
    26    18    19   ar
    27    19    20   ar
    28    12    13   ar
    29    13    14   ar
    30    27    28   ar
    31    28    23   ar
    32     5     1   ar
    33    14     9   ar
    34    14     4    1
    35    20    15   ar
    36    21    22    1
@<TRIPOS>MOLECULE
*****
 32 36 0 0 0
SMALL
GASTEIGER

@<TRIPOS>ATOM
      1 C         139.6871  144.4452  162.3941 C.ar    1  UNL1        0.2224
      2 N         140.5510  144.9686  163.5030 N.ar    1  UNL1       -0.1127
      3 N         140.4908  143.9905  164.6386 N.ar    1  UNL1       -0.1273
      4 C         139.5896  142.8625  164.2315 C.ar    1  UNL1        0.1704
      5 N         139.0929  143.1436  162.8443 N.ar    1  UNL1       -0.2796
      6 C         138.1686  142.3202  161.9972 C.3     1  UNL1        0.1574
      7 C         137.5126  141.0124  162.3280 C.3     1  UNL1        0.2299
      8 O         137.6191  140.2050  163.5877 O.3     1  UNL1       -0.4733
      9 C         138.4077  140.5060  164.8277 C.ar    1  UNL1        0.1415
     10 C         138.2371  139.4312  165.8600 C.ar    1  UNL1        0.0370
     11 C         138.9435  139.5391  167.1788 C.ar    1  UNL1        0.0031
     12 C         139.8204  140.7219  167.4654 C.ar    1  UNL1        0.0004
     13 C         139.9910  141.7966  166.4331 C.ar    1  UNL1        0.0061
     14 C         139.2847  141.6887  165.1142 C.ar    1  UNL1        0.0699
     15 C         140.5268  140.8298  168.7843 C.ar    1  UNL1        0.0031
     16 C         140.0490  141.8114  169.8129 C.ar    1  UNL1        0.0207
     17 C         140.7554  141.9194  171.1318 C.ar    1  UNL1        0.0989
     18 N         141.9396  141.0456  171.4220 N.ar    1  UNL1       -0.2423
     19 C         142.4173  140.0638  170.3934 C.ar    1  UNL1        0.0989
     20 C         141.7110  139.9560  169.0746 C.ar    1  UNL1        0.0207
     21 N         139.4576  145.1072  161.0678 N.pl3   1  UNL1       -0.2826
     22 H         138.8432  145.8734  160.9998 H       1  UNL1        0.1551
     23 C         140.2924  142.9551  157.8395 C.ar    1  UNL1        0.0726
     24 C         141.5777  143.5910  157.3995 C.ar    1  UNL1        0.0039
     25 C         142.1563  144.7323  158.1823 C.ar    1  UNL1        0.0012
     26 C         141.4496  145.2377  159.4050 C.ar    1  UNL1        0.0147
     27 C         140.1643  144.6018  159.8450 C.ar    1  UNL1        0.0504
     28 C         139.5857  143.4605  159.0622 C.ar    1  UNL1        0.0185
     29 F         139.1351  140.6726  156.2741 F       1  UNL1       -0.1659
     30 C         139.7138  141.8138  157.0567 C.3     1  UNL1        0.4186
     31 F         141.0404  141.5980  156.3909 F       1  UNL1       -0.1659
     32 F         138.3871  142.0298  157.7227 F       1  UNL1       -0.1659
@<TRIPOS>BOND
     1    29    30    1
     2    30    31    1
     3    30    32    1
     4    30    23    1
     5    23    24   ar
     6    24    25   ar
     7    25    26   ar
     8    26    27   ar
     9    27    21    1
    10    21     1    1
    11     1     2   ar
    12     2     3   ar
    13     3     4   ar
    14     4     5   ar
    15     5     6    1
    16     6     7    1
    17     7     8    1
    18     8     9    1
    19     9    10   ar
    20    10    11   ar
    21    11    12   ar
    22    12    15    1
    23    15    16   ar
    24    16    17   ar
    25    17    18   ar
    26    18    19   ar
    27    19    20   ar
    28    12    13   ar
    29    13    14   ar
    30    27    28   ar
    31    28    23   ar
    32     5     1   ar
    33    14     9   ar
    34    14     4    1
    35    20    15   ar
    36    21    22    1
@<TRIPOS>MOLECULE
*****
 32 36 0 0 0
SMALL
GASTEIGER

@<TRIPOS>ATOM
      1 C         138.3688  140.0146  162.1700 C.ar    1  UNL1        0.2224
      2 N         137.6894  140.8105  163.2446 N.ar    1  UNL1       -0.1127
      3 N         138.5380  140.7412  164.4795 N.ar    1  UNL1       -0.1273
      4 C         139.7420  139.9024  164.1680 C.ar    1  UNL1        0.1704
      5 N         139.6373  139.4534  162.7406 N.ar    1  UNL1       -0.2796
      6 C         140.5885  138.5980  161.9572 C.3     1  UNL1        0.1574
      7 C         141.8791  137.9804  162.4077 C.3     1  UNL1        0.2299
      8 O         142.5373  138.0656  163.7529 O.3     1  UNL1       -0.4733
      9 C         142.0675  138.7896  164.9798 C.ar    1  UNL1        0.1415
     10 C         143.0284  138.6181  166.1188 C.ar    1  UNL1        0.0370
     11 C         142.7451  139.2641  167.4426 C.ar    1  UNL1        0.0031
     12 C         141.5011  140.0816  167.6273 C.ar    1  UNL1        0.0004
     13 C         140.5403  140.2531  166.4883 C.ar    1  UNL1        0.0061
     14 C         140.8235  139.6070  165.1646 C.ar    1  UNL1        0.0699
     15 C         141.2179  140.7277  168.9512 C.ar    1  UNL1        0.0031
     16 C         140.1750  141.8008  169.0542 C.ar    1  UNL1        0.0207
     17 C         139.8918  142.4468  170.3781 C.ar    1  UNL1        0.0989
     18 N         140.6516  142.0197  171.5988 N.ar    1  UNL1       -0.2423
     19 C         141.6946  140.9466  171.4957 C.ar    1  UNL1        0.0989
     20 C         141.9778  140.3006  170.1719 C.ar    1  UNL1        0.0207
     21 N         137.8676  139.8150  160.7703 N.pl3   1  UNL1       -0.2826
     22 H         137.3265  139.0227  160.5495 H       1  UNL1        0.1551
     23 C         139.2836  143.0690  158.9938 C.ar    1  UNL1        0.0726
     24 C         138.8373  142.8375  157.5806 C.ar    1  UNL1        0.0039
     25 C         138.0677  141.5984  157.2307 C.ar    1  UNL1        0.0012
     26 C         137.7445  140.5910  158.2939 C.ar    1  UNL1        0.0147
     27 C         138.1908  140.8225  159.7071 C.ar    1  UNL1        0.0504
     28 C         138.9604  142.0616  160.0570 C.ar    1  UNL1        0.0185
     29 F         140.8228  145.5471  159.6936 F       1  UNL1       -0.1659
     30 C         140.0532  144.3081  159.3438 C.3     1  UNL1        0.4186
     31 F         139.6563  144.1487  160.7814 F       1  UNL1       -0.1659
     32 F         140.4502  144.4675  157.9060 F       1  UNL1       -0.1659
@<TRIPOS>BOND
     1    29    30    1
     2    30    31    1
     3    30    32    1
     4    30    23    1
     5    23    24   ar
     6    24    25   ar
     7    25    26   ar
     8    26    27   ar
     9    27    21    1
    10    21     1    1
    11     1     2   ar
    12     2     3   ar
    13     3     4   ar
    14     4     5   ar
    15     5     6    1
    16     6     7    1
    17     7     8    1
    18     8     9    1
    19     9    10   ar
    20    10    11   ar
    21    11    12   ar
    22    12    15    1
    23    15    16   ar
    24    16    17   ar
    25    17    18   ar
    26    18    19   ar
    27    19    20   ar
    28    12    13   ar
    29    13    14   ar
    30    27    28   ar
    31    28    23   ar
    32     5     1   ar
    33    14     9   ar
    34    14     4    1
    35    20    15   ar
    36    21    22    1
