@<TRIPOS>MOLECULE
*****
 32 36 0 0 0
SMALL
GASTEIGER

@<TRIPOS>ATOM
      1 N         141.5812  139.9204  161.5141 N.pl3   1  UNL1       -0.2090
      2 N         141.8880  139.7371  160.0574 N.2     1  UNL1       -0.1821
      3 C         140.8832  138.7793  159.4890 C.2     1  UNL1        0.0783
      4 C         139.9554  138.3707  160.5945 C.3     1  UNL1        0.0737
      5 C         140.3867  139.0759  161.8461 C.3     1  UNL1        0.1244
      6 C         140.8178  138.3121  158.0650 C.2     1  UNL1        0.0143
      7 C         142.0802  137.9825  157.3250 C.2     1  UNL1       -0.0186
      8 C         142.0146  137.5154  155.9012 C.3     1  UNL1        0.0725
      9 C         140.6867  137.3778  155.2173 C.2     1  UNL1        0.0933
     10 N         140.3117  136.9439  153.8312 N.am    1  UNL1       -0.1431
     11 C         138.8176  137.0054  153.7146 C.2     1  UNL1        0.4298
     12 O         138.0130  136.6563  152.4977 O.2     1  UNL1       -0.2238
     13 O         138.2691  137.4773  155.0286 O.3     1  UNL1       -0.4079
     14 C         139.4243  137.7075  155.9573 C.2     1  UNL1        0.1617
     15 C         139.4898  138.1746  157.3812 C.2     1  UNL1        0.0396
     16 C         143.8462  142.5433  164.3846 C.ar    1  UNL1        0.0685
     17 C         142.6941  143.1046  163.6052 C.ar    1  UNL1        0.0116
     18 C         141.9391  142.2303  162.6484 C.ar    1  UNL1        0.0170
     19 C         142.3362  140.7947  162.4710 C.ar    1  UNL1        0.0694
     20 C         143.4883  140.2335  163.2504 C.ar    1  UNL1        0.0170
     21 C         144.2434  141.1077  164.2072 C.ar    1  UNL1        0.0116
     22 N         145.3563  144.2919  166.2983 N.1     1  UNL1       -0.1908
     23 C         144.6012  143.4176  165.3415 C.1     1  UNL1        0.1004
     24 C         139.7376  138.9575  163.1932 C.ar    1  UNL1       -0.0020
     25 C         139.8123  137.6650  163.9507 C.ar    1  UNL1       -0.0026
     26 C         139.1632  137.5466  165.2978 C.ar    1  UNL1        0.0009
     27 C         138.4393  138.7207  165.8873 C.ar    1  UNL1        0.0140
     28 C         138.3646  140.0132  165.1297 C.ar    1  UNL1        0.0009
     29 C         139.0137  140.1316  163.7827 C.ar    1  UNL1       -0.0026
     30 C         137.7902  138.6022  167.2344 C.2     1  UNL1        0.0729
     31 O         136.5834  137.7291  167.4112 O.co2   1  UNL1       -0.5446
     32 O         138.3479  139.3569  168.4046 O.co2   1  UNL1       -0.5446
@<TRIPOS>UNITY_ATOM_ATTR
31 1
charge -1
@<TRIPOS>BOND
     1    22    23    3
     2    23    16    1
     3    16    17   ar
     4    17    18   ar
     5    18    19   ar
     6    19     1    1
     7     1     2    1
     8     2     3    2
     9     3     6    1
    10     6     7    2
    11     7     8    1
    12     8     9    1
    13     9    10    2
    14    10    11    1
    15    11    12    2
    16    11    13    1
    17    13    14    1
    18    14    15    2
    19     3     4    1
    20     4     5    1
    21     5    24    1
    22    24    25   ar
    23    25    26   ar
    24    26    27   ar
    25    27    30    1
    26    30    31   ar
    27    30    32   ar
    28    27    28   ar
    29    28    29   ar
    30    19    20   ar
    31    20    21   ar
    32    21    16   ar
    33     5     1    1
    34    29    24   ar
    35    15     6    1
    36    14     9    1
@<TRIPOS>MOLECULE
*****
 32 36 0 0 0
SMALL
GASTEIGER

@<TRIPOS>ATOM
      1 N         140.4535  141.9206  162.2139 N.pl3   1  UNL1       -0.2090
      2 N         140.0782  142.2224  163.6345 N.2     1  UNL1       -0.1821
      3 C         140.2902  140.9777  164.4444 C.2     1  UNL1        0.0783
      4 C         140.7967  139.9067  163.5243 C.3     1  UNL1        0.0737
      5 C         140.8977  140.4894  162.1458 C.3     1  UNL1        0.1244
      6 C         140.0398  140.8300  165.9160 C.2     1  UNL1        0.0143
      7 C         139.1363  139.7429  166.4176 C.2     1  UNL1       -0.0186
      8 C         138.8859  139.5952  167.8891 C.3     1  UNL1        0.0725
      9 C         139.5391  140.5346  168.8590 C.2     1  UNL1        0.0933
     10 N         139.4810  140.6334  170.3547 N.am    1  UNL1       -0.1431
     11 C         140.3487  141.7816  170.7774 C.2     1  UNL1        0.4298
     12 O         140.5813  142.2387  172.1871 O.2     1  UNL1       -0.2238
     13 O         140.9430  142.3924  169.5430 O.3     1  UNL1       -0.4079
     14 C         140.4426  141.6218  168.3574 C.2     1  UNL1        0.1617
     15 C         140.6930  141.7695  166.8859 C.2     1  UNL1        0.0396
     16 C         140.2782  144.8027  158.7625 C.ar    1  UNL1        0.0685
     17 C         141.1883  145.0767  159.9228 C.ar    1  UNL1        0.0116
     18 C         141.2468  144.1160  161.0733 C.ar    1  UNL1        0.0170
     19 C         140.3951  142.8813  161.0634 C.ar    1  UNL1        0.0694
     20 C         139.4850  142.6073  159.9030 C.ar    1  UNL1        0.0170
     21 C         139.4265  143.5679  158.7525 C.ar    1  UNL1        0.0116
     22 N         140.1614  146.7241  156.4614 N.1     1  UNL1       -0.1908
     23 C         140.2198  145.7634  157.6120 C.1     1  UNL1        0.1004
     24 C         141.3613  139.7677  160.9153 C.ar    1  UNL1       -0.0020
     25 C         140.3668  139.0693  160.0360 C.ar    1  UNL1       -0.0026
     26 C         140.8304  138.3476  158.8055 C.ar    1  UNL1        0.0009
     27 C         142.2885  138.3243  158.4543 C.ar    1  UNL1        0.0140
     28 C         143.2830  139.0227  159.3336 C.ar    1  UNL1        0.0009
     29 C         142.8194  139.7444  160.5641 C.ar    1  UNL1       -0.0026
     30 C         142.7522  137.6026  157.2238 C.2     1  UNL1        0.0729
     31 O         142.0367  136.3667  156.7649 O.co2   1  UNL1       -0.5446
     32 O         143.9313  138.1169  156.4522 O.co2   1  UNL1       -0.5446
@<TRIPOS>UNITY_ATOM_ATTR
31 1
charge -1
@<TRIPOS>BOND
     1    22    23    3
     2    23    16    1
     3    16    17   ar
     4    17    18   ar
     5    18    19   ar
     6    19     1    1
     7     1     2    1
     8     2     3    2
     9     3     6    1
    10     6     7    2
    11     7     8    1
    12     8     9    1
    13     9    10    2
    14    10    11    1
    15    11    12    2
    16    11    13    1
    17    13    14    1
    18    14    15    2
    19     3     4    1
    20     4     5    1
    21     5    24    1
    22    24    25   ar
    23    25    26   ar
    24    26    27   ar
    25    27    30    1
    26    30    31   ar
    27    30    32   ar
    28    27    28   ar
    29    28    29   ar
    30    19    20   ar
    31    20    21   ar
    32    21    16   ar
    33     5     1    1
    34    29    24   ar
    35    15     6    1
    36    14     9    1
@<TRIPOS>MOLECULE
*****
 32 36 0 0 0
SMALL
GASTEIGER

@<TRIPOS>ATOM
      1 N         140.4409  140.0874  161.6757 N.pl3   1  UNL1       -0.2090
      2 N         140.2133  139.4258  163.0025 N.2     1  UNL1       -0.1821
      3 C         139.9418  140.4988  164.0150 C.2     1  UNL1        0.0783
      4 C         140.0015  141.8235  163.3138 C.3     1  UNL1        0.0737
      5 C         140.3100  141.5693  161.8681 C.3     1  UNL1        0.1244
      6 C         139.6599  140.2846  165.4727 C.2     1  UNL1        0.0143
      7 C         138.5274  139.3965  165.8950 C.2     1  UNL1       -0.0186
      8 C         138.2456  139.1824  167.3526 C.3     1  UNL1        0.0725
      9 C         139.0964  139.8564  168.3879 C.2     1  UNL1        0.0933
     10 N         139.0588  139.8345  169.8873 N.am    1  UNL1       -0.1431
     11 C         140.1681  140.7091  170.3916 C.2     1  UNL1        0.4298
     12 O         140.4967  140.9747  171.8310 O.2     1  UNL1       -0.2238
     13 O         140.8913  141.2716  169.2039 O.3     1  UNL1       -0.4079
     14 C         140.2289  140.7446  167.9656 C.2     1  UNL1        0.1617
     15 C         140.5107  140.9587  166.5079 C.2     1  UNL1        0.0396
     16 C         141.3558  137.9942  157.7987 C.ar    1  UNL1        0.0685
     17 C         142.4686  138.3516  158.7388 C.ar    1  UNL1        0.0116
     18 C         142.1636  139.0493  160.0311 C.ar    1  UNL1        0.0170
     19 C         140.7458  139.3897  160.3834 C.ar    1  UNL1        0.0694
     20 C         139.6330  139.0322  159.4432 C.ar    1  UNL1        0.0170
     21 C         139.9379  138.3345  158.1509 C.ar    1  UNL1        0.0116
     22 N         141.9657  136.5987  155.2140 N.1     1  UNL1       -0.1908
     23 C         141.6607  137.2965  156.5064 C.1     1  UNL1        0.1004
     24 C         140.4610  142.6136  160.8019 C.ar    1  UNL1       -0.0020
     25 C         139.4145  142.7546  159.7366 C.ar    1  UNL1       -0.0026
     26 C         139.5655  143.7988  158.6705 C.ar    1  UNL1        0.0009
     27 C         140.7631  144.7021  158.6696 C.ar    1  UNL1        0.0140
     28 C         141.8096  144.5610  159.7350 C.ar    1  UNL1        0.0009
     29 C         141.6586  143.5168  160.8011 C.ar    1  UNL1       -0.0026
     30 C         140.9141  145.7463  157.6035 C.2     1  UNL1        0.0729
     31 O         142.2210  145.8992  156.8833 O.co2   1  UNL1       -0.5446
     32 O         139.7583  146.6376  157.2576 O.co2   1  UNL1       -0.5446
@<TRIPOS>UNITY_ATOM_ATTR
31 1
charge -1
@<TRIPOS>BOND
     1    22    23    3
     2    23    16    1
     3    16    17   ar
     4    17    18   ar
     5    18    19   ar
     6    19     1    1
     7     1     2    1
     8     2     3    2
     9     3     6    1
    10     6     7    2
    11     7     8    1
    12     8     9    1
    13     9    10    2
    14    10    11    1
    15    11    12    2
    16    11    13    1
    17    13    14    1
    18    14    15    2
    19     3     4    1
    20     4     5    1
    21     5    24    1
    22    24    25   ar
    23    25    26   ar
    24    26    27   ar
    25    27    30    1
    26    30    31   ar
    27    30    32   ar
    28    27    28   ar
    29    28    29   ar
    30    19    20   ar
    31    20    21   ar
    32    21    16   ar
    33     5     1    1
    34    29    24   ar
    35    15     6    1
    36    14     9    1
@<TRIPOS>MOLECULE
*****
 32 36 0 0 0
SMALL
GASTEIGER

@<TRIPOS>ATOM
      1 N         142.4371  141.8819  161.3736 N.pl3   1  UNL1       -0.2090
      2 N         142.6044  142.2115  159.9198 N.2     1  UNL1       -0.1821
      3 C         143.5808  141.2358  159.3328 C.2     1  UNL1        0.0783
      4 C         144.0169  140.3032  160.4237 C.3     1  UNL1        0.0737
      5 C         143.3100  140.7025  161.6850 C.3     1  UNL1        0.1244
      6 C         144.0405  141.1990  157.9054 C.2     1  UNL1        0.0143
      7 C         143.4026  140.2484  156.9362 C.2     1  UNL1       -0.0186
      8 C         143.8622  140.2117  155.5089 C.3     1  UNL1        0.0725
      9 C         144.9598  141.1257  155.0507 C.2     1  UNL1        0.0933
     10 N         145.6178  141.3136  153.7158 N.am    1  UNL1       -0.1431
     11 C         146.6623  142.3804  153.8600 C.2     1  UNL1        0.4298
     12 O         147.5615  142.8869  152.7713 O.2     1  UNL1       -0.2238
     13 O         146.6500  142.8518  155.2839 O.3     1  UNL1       -0.4079
     14 C         145.5978  142.0763  156.0198 C.2     1  UNL1        0.1617
     15 C         145.1381  142.1130  157.4472 C.2     1  UNL1        0.0396
     16 C         139.7822  144.0507  164.2887 C.ar    1  UNL1        0.0685
     17 C         141.2578  144.3195  164.2750 C.ar    1  UNL1        0.0116
     18 C         142.1428  143.5965  163.3032 C.ar    1  UNL1        0.0170
     19 C         141.5521  142.6049  162.3453 C.ar    1  UNL1        0.0694
     20 C         140.0764  142.3362  162.3591 C.ar    1  UNL1        0.0170
     21 C         139.1915  143.0590  163.3307 C.ar    1  UNL1        0.0116
     22 N         138.0123  145.4966  166.2321 N.1     1  UNL1       -0.1908
     23 C         138.8973  144.7736  165.2604 C.1     1  UNL1        0.1004
     24 C         143.4513  140.0390  163.0228 C.ar    1  UNL1       -0.0020
     25 C         144.8091  139.8739  163.6385 C.ar    1  UNL1       -0.0026
     26 C         144.9504  139.2104  164.9763 C.ar    1  UNL1        0.0009
     27 C         143.7338  138.7119  165.6984 C.ar    1  UNL1        0.0140
     28 C         142.3760  138.8770  165.0827 C.ar    1  UNL1        0.0009
     29 C         142.2347  139.5405  163.7449 C.ar    1  UNL1       -0.0026
     30 C         143.8751  138.0484  167.0362 C.2     1  UNL1        0.0729
     31 O         143.1398  138.5929  168.2248 O.co2   1  UNL1       -0.5446
     32 O         144.7517  136.8403  167.1854 O.co2   1  UNL1       -0.5446
@<TRIPOS>UNITY_ATOM_ATTR
31 1
charge -1
@<TRIPOS>BOND
     1    22    23    3
     2    23    16    1
     3    16    17   ar
     4    17    18   ar
     5    18    19   ar
     6    19     1    1
     7     1     2    1
     8     2     3    2
     9     3     6    1
    10     6     7    2
    11     7     8    1
    12     8     9    1
    13     9    10    2
    14    10    11    1
    15    11    12    2
    16    11    13    1
    17    13    14    1
    18    14    15    2
    19     3     4    1
    20     4     5    1
    21     5    24    1
    22    24    25   ar
    23    25    26   ar
    24    26    27   ar
    25    27    30    1
    26    30    31   ar
    27    30    32   ar
    28    27    28   ar
    29    28    29   ar
    30    19    20   ar
    31    20    21   ar
    32    21    16   ar
    33     5     1    1
    34    29    24   ar
    35    15     6    1
    36    14     9    1
@<TRIPOS>MOLECULE
*****
 32 36 0 0 0
SMALL
GASTEIGER

@<TRIPOS>ATOM
      1 N         140.3596  139.0305  162.1810 N.pl3   1  UNL1       -0.2090
      2 N         140.0421  138.4099  160.8528 N.2     1  UNL1       -0.1821
      3 C         141.0491  138.9047  159.8573 C.2     1  UNL1        0.0783
      4 C         141.9891  139.8312  160.5702 C.3     1  UNL1        0.0737
      5 C         141.5630  139.9089  162.0063 C.3     1  UNL1        0.1244
      6 C         141.1062  138.5376  158.4040 C.2     1  UNL1        0.0143
      7 C         142.3844  138.7064  157.6374 C.2     1  UNL1       -0.0186
      8 C         142.4414  138.3393  156.1842 C.3     1  UNL1        0.0725
      9 C         141.2203  137.8033  155.4976 C.2     1  UNL1        0.0933
     10 N         140.9761  137.3596  154.0856 N.am    1  UNL1       -0.1431
     11 C         139.5470  136.9166  153.9796 C.2     1  UNL1        0.4298
     12 O         138.8748  136.3951  152.7440 O.2     1  UNL1       -0.2238
     13 O         138.9079  137.0864  155.3260 O.3     1  UNL1       -0.4079
     14 C         139.9421  137.6345  156.2641 C.2     1  UNL1        0.1617
     15 C         139.8850  138.0016  157.7173 C.2     1  UNL1        0.0396
     16 C         138.0993  138.3727  166.0160 C.ar    1  UNL1        0.0685
     17 C         138.8385  137.2349  165.3766 C.ar    1  UNL1        0.0116
     18 C         139.5920  137.4542  164.0982 C.ar    1  UNL1        0.0170
     19 C         139.6062  138.8112  163.4593 C.ar    1  UNL1        0.0694
     20 C         138.8670  139.9490  164.0989 C.ar    1  UNL1        0.0170
     21 C         138.1135  139.7298  165.3772 C.ar    1  UNL1        0.0116
     22 N         136.5924  137.9341  168.5728 N.1     1  UNL1       -0.1908
     23 C         137.3459  138.1534  167.2944 C.1     1  UNL1        0.1004
     24 C         142.2241  140.7223  163.0793 C.ar    1  UNL1       -0.0020
     25 C         142.4314  142.1950  162.8838 C.ar    1  UNL1       -0.0026
     26 C         143.0925  143.0083  163.9568 C.ar    1  UNL1        0.0009
     27 C         143.5463  142.3489  165.2254 C.ar    1  UNL1        0.0140
     28 C         143.3390  140.8762  165.4209 C.ar    1  UNL1        0.0009
     29 C         142.6779  140.0629  164.3479 C.ar    1  UNL1       -0.0026
     30 C         144.2074  143.1622  166.2984 C.2     1  UNL1        0.0729
     31 O         143.9039  142.8881  167.7416 O.co2   1  UNL1       -0.5446
     32 O         145.1721  144.2496  165.9283 O.co2   1  UNL1       -0.5446
@<TRIPOS>UNITY_ATOM_ATTR
31 1
charge -1
@<TRIPOS>BOND
     1    22    23    3
     2    23    16    1
     3    16    17   ar
     4    17    18   ar
     5    18    19   ar
     6    19     1    1
     7     1     2    1
     8     2     3    2
     9     3     6    1
    10     6     7    2
    11     7     8    1
    12     8     9    1
    13     9    10    2
    14    10    11    1
    15    11    12    2
    16    11    13    1
    17    13    14    1
    18    14    15    2
    19     3     4    1
    20     4     5    1
    21     5    24    1
    22    24    25   ar
    23    25    26   ar
    24    26    27   ar
    25    27    30    1
    26    30    31   ar
    27    30    32   ar
    28    27    28   ar
    29    28    29   ar
    30    19    20   ar
    31    20    21   ar
    32    21    16   ar
    33     5     1    1
    34    29    24   ar
    35    15     6    1
    36    14     9    1
@<TRIPOS>MOLECULE
*****
 32 36 0 0 0
SMALL
GASTEIGER

@<TRIPOS>ATOM
      1 N         140.7036  142.4879  161.6305 N.pl3   1  UNL1       -0.2090
      2 N         140.3747  142.9092  163.0320 N.2     1  UNL1       -0.1821
      3 C         140.6444  141.7467  163.9408 C.2     1  UNL1        0.0783
      4 C         141.1401  140.6070  163.1009 C.3     1  UNL1        0.0737
      5 C         141.1767  141.0650  161.6731 C.3     1  UNL1        0.1244
      6 C         140.4523  141.7274  165.4284 C.2     1  UNL1        0.0143
      7 C         140.9214  142.8839  166.2603 C.2     1  UNL1       -0.0186
      8 C         140.7293  142.8645  167.7478 C.3     1  UNL1        0.0725
      9 C         140.0680  141.6885  168.4033 C.2     1  UNL1        0.0933
     10 N         139.7443  141.3896  169.8372 N.am    1  UNL1       -0.1431
     11 C         139.0752  140.0482  169.8914 C.2     1  UNL1        0.4298
     12 O         138.5824  139.3580  171.1287 O.2     1  UNL1       -0.2238
     13 O         138.9853  139.5182  168.4911 O.3     1  UNL1       -0.4079
     14 C         139.5988  140.5320  167.5714 C.2     1  UNL1        0.1617
     15 C         139.7910  140.5514  166.0839 C.2     1  UNL1        0.0396
     16 C         140.3358  145.0437  157.9451 C.ar    1  UNL1        0.0685
     17 C         139.5982  143.7405  158.0305 C.ar    1  UNL1        0.0116
     18 C         139.7208  142.8885  159.2590 C.ar    1  UNL1        0.0170
     19 C         140.5810  143.3398  160.4020 C.ar    1  UNL1        0.0694
     20 C         141.3186  144.6432  160.3164 C.ar    1  UNL1        0.0170
     21 C         141.1961  145.4951  159.0881 C.ar    1  UNL1        0.0116
     22 N         140.0906  146.7476  155.4881 N.1     1  UNL1       -0.1908
     23 C         140.2132  145.8957  156.7166 C.1     1  UNL1        0.1004
     24 C         141.6102  140.2443  160.4947 C.ar    1  UNL1       -0.0020
     25 C         142.9815  140.4292  159.9157 C.ar    1  UNL1       -0.0026
     26 C         143.4150  139.6085  158.7374 C.ar    1  UNL1        0.0009
     27 C         142.4771  138.6030  158.1380 C.ar    1  UNL1        0.0140
     28 C         141.1058  138.4182  158.7169 C.ar    1  UNL1        0.0009
     29 C         140.6723  139.2388  159.8953 C.ar    1  UNL1       -0.0026
     30 C         142.9106  137.7824  156.9596 C.2     1  UNL1        0.0729
     31 O         142.1588  136.5363  156.5961 O.co2   1  UNL1       -0.5446
     32 O         144.0960  138.2077  156.1447 O.co2   1  UNL1       -0.5446
@<TRIPOS>UNITY_ATOM_ATTR
31 1
charge -1
@<TRIPOS>BOND
     1    22    23    3
     2    23    16    1
     3    16    17   ar
     4    17    18   ar
     5    18    19   ar
     6    19     1    1
     7     1     2    1
     8     2     3    2
     9     3     6    1
    10     6     7    2
    11     7     8    1
    12     8     9    1
    13     9    10    2
    14    10    11    1
    15    11    12    2
    16    11    13    1
    17    13    14    1
    18    14    15    2
    19     3     4    1
    20     4     5    1
    21     5    24    1
    22    24    25   ar
    23    25    26   ar
    24    26    27   ar
    25    27    30    1
    26    30    31   ar
    27    30    32   ar
    28    27    28   ar
    29    28    29   ar
    30    19    20   ar
    31    20    21   ar
    32    21    16   ar
    33     5     1    1
    34    29    24   ar
    35    15     6    1
    36    14     9    1
@<TRIPOS>MOLECULE
*****
 32 36 0 0 0
SMALL
GASTEIGER

@<TRIPOS>ATOM
      1 N         140.9532  139.1807  161.0964 N.pl3   1  UNL1       -0.2090
      2 N         140.7450  138.4068  159.8284 N.2     1  UNL1       -0.1821
      3 C         141.6931  138.9430  158.7971 C.2     1  UNL1        0.0783
      4 C         142.4873  140.0483  159.4278 C.3     1  UNL1        0.0737
      5 C         142.0300  140.1952  160.8488 C.3     1  UNL1        0.1244
      6 C         141.8242  138.4590  157.3834 C.2     1  UNL1        0.0143
      7 C         142.1056  139.4348  156.2796 C.2     1  UNL1       -0.0186
      8 C         142.2366  138.9508  154.8659 C.3     1  UNL1        0.0725
      9 C         142.0862  137.4909  154.5561 C.2     1  UNL1        0.0933
     10 N         142.1625  136.7250  153.2685 N.am    1  UNL1       -0.1431
     11 C         141.9283  135.2758  153.5767 C.2     1  UNL1        0.4298
     12 O         141.9171  134.1534  152.5816 O.2     1  UNL1       -0.2238
     13 O         141.7072  135.1460  155.0546 O.3     1  UNL1       -0.4079
     14 C         141.8048  136.5150  155.6599 C.2     1  UNL1        0.1617
     15 C         141.6738  136.9991  157.0736 C.2     1  UNL1        0.0396
     16 C         138.7365  138.5665  164.9640 C.ar    1  UNL1        0.0685
     17 C         138.3682  139.7065  164.0614 C.ar    1  UNL1        0.0116
     18 C         139.1071  139.9112  162.7722 C.ar    1  UNL1        0.0170
     19 C         140.2143  138.9759  162.3856 C.ar    1  UNL1        0.0694
     20 C         140.5825  137.8360  163.2883 C.ar    1  UNL1        0.0170
     21 C         139.8437  137.6312  164.5775 C.ar    1  UNL1        0.0116
     22 N         137.2587  138.1571  167.5425 N.1     1  UNL1       -0.1908
     23 C         137.9976  138.3618  166.2533 C.1     1  UNL1        0.1004
     24 C         142.5569  141.1831  161.8470 C.ar    1  UNL1       -0.0020
     25 C         141.8100  142.4577  162.1069 C.ar    1  UNL1       -0.0026
     26 C         142.3369  143.4456  163.1050 C.ar    1  UNL1        0.0009
     27 C         143.6108  143.1590  163.8433 C.ar    1  UNL1        0.0140
     28 C         144.3577  141.8844  163.5834 C.ar    1  UNL1        0.0009
     29 C         143.8308  140.8965  162.5852 C.ar    1  UNL1       -0.0026
     30 C         144.1377  144.1469  164.8414 C.2     1  UNL1        0.0729
     31 O         144.7557  143.6640  166.1201 O.co2   1  UNL1       -0.5446
     32 O         144.0467  145.6176  164.5609 O.co2   1  UNL1       -0.5446
@<TRIPOS>UNITY_ATOM_ATTR
31 1
charge -1
@<TRIPOS>BOND
     1    22    23    3
     2    23    16    1
     3    16    17   ar
     4    17    18   ar
     5    18    19   ar
     6    19     1    1
     7     1     2    1
     8     2     3    2
     9     3     6    1
    10     6     7    2
    11     7     8    1
    12     8     9    1
    13     9    10    2
    14    10    11    1
    15    11    12    2
    16    11    13    1
    17    13    14    1
    18    14    15    2
    19     3     4    1
    20     4     5    1
    21     5    24    1
    22    24    25   ar
    23    25    26   ar
    24    26    27   ar
    25    27    30    1
    26    30    31   ar
    27    30    32   ar
    28    27    28   ar
    29    28    29   ar
    30    19    20   ar
    31    20    21   ar
    32    21    16   ar
    33     5     1    1
    34    29    24   ar
    35    15     6    1
    36    14     9    1
@<TRIPOS>MOLECULE
*****
 32 36 0 0 0
SMALL
GASTEIGER

@<TRIPOS>ATOM
      1 N         141.1414  141.1115  161.1368 N.pl3   1  UNL1       -0.2090
      2 N         141.2851  140.7677  162.5898 N.2     1  UNL1       -0.1821
      3 C         139.9116  140.7045  163.1892 C.2     1  UNL1        0.0783
      4 C         138.9189  141.0093  162.1067 C.3     1  UNL1        0.0737
      5 C         139.6790  141.2609  160.8382 C.3     1  UNL1        0.1244
      6 C         139.5875  140.3915  164.6200 C.2     1  UNL1        0.0143
      7 C         138.5530  139.3552  164.9453 C.2     1  UNL1       -0.0186
      8 C         138.2290  139.0422  166.3760 C.3     1  UNL1        0.0725
      9 C         138.9395  139.7655  167.4814 C.2     1  UNL1        0.0933
     10 N         138.8320  139.6705  168.9746 N.am    1  UNL1       -0.1431
     11 C         139.8002  140.6480  169.5721 C.2     1  UNL1        0.4298
     12 O         140.0234  140.8849  171.0364 O.2     1  UNL1       -0.2238
     13 O         140.5060  141.3471  168.4483 O.3     1  UNL1       -0.4079
     14 C         139.9741  140.8017  167.1562 C.2     1  UNL1        0.1617
     15 C         140.2981  141.1147  165.7255 C.2     1  UNL1        0.0396
     16 C         144.5065  141.6080  158.1907 C.ar    1  UNL1        0.0685
     17 C         144.1466  142.7334  159.1147 C.ar    1  UNL1        0.0116
     18 C         143.0248  142.5679  160.0968 C.ar    1  UNL1        0.0170
     19 C         142.2631  141.2770  160.1548 C.ar    1  UNL1        0.0694
     20 C         142.6231  140.1516  159.2307 C.ar    1  UNL1        0.0170
     21 C         143.7447  140.3170  158.2487 C.ar    1  UNL1        0.0116
     22 N         146.7499  141.9389  156.2267 N.1     1  UNL1       -0.1908
     23 C         145.6282  141.7735  157.2087 C.1     1  UNL1        0.1004
     24 C         139.0815  141.6019  159.5053 C.ar    1  UNL1       -0.0020
     25 C         139.4948  142.8582  158.7975 C.ar    1  UNL1       -0.0026
     26 C         138.8973  143.1992  157.4646 C.ar    1  UNL1        0.0009
     27 C         137.8867  142.2839  156.8394 C.ar    1  UNL1        0.0140
     28 C         137.4734  141.0276  157.5472 C.ar    1  UNL1        0.0009
     29 C         138.0708  140.6866  158.8802 C.ar    1  UNL1       -0.0026
     30 C         137.2892  142.6250  155.5065 C.2     1  UNL1        0.0729
     31 O         136.2455  143.6974  155.4047 O.co2   1  UNL1       -0.5446
     32 O         137.7355  141.8935  154.2753 O.co2   1  UNL1       -0.5446
@<TRIPOS>UNITY_ATOM_ATTR
31 1
charge -1
@<TRIPOS>BOND
     1    22    23    3
     2    23    16    1
     3    16    17   ar
     4    17    18   ar
     5    18    19   ar
     6    19     1    1
     7     1     2    1
     8     2     3    2
     9     3     6    1
    10     6     7    2
    11     7     8    1
    12     8     9    1
    13     9    10    2
    14    10    11    1
    15    11    12    2
    16    11    13    1
    17    13    14    1
    18    14    15    2
    19     3     4    1
    20     4     5    1
    21     5    24    1
    22    24    25   ar
    23    25    26   ar
    24    26    27   ar
    25    27    30    1
    26    30    31   ar
    27    30    32   ar
    28    27    28   ar
    29    28    29   ar
    30    19    20   ar
    31    20    21   ar
    32    21    16   ar
    33     5     1    1
    34    29    24   ar
    35    15     6    1
    36    14     9    1
@<TRIPOS>MOLECULE
*****
 32 36 0 0 0
SMALL
GASTEIGER

@<TRIPOS>ATOM
      1 N         141.1351  140.9963  161.5543 N.pl3   1  UNL1       -0.2090
      2 N         141.1359  140.5559  162.9882 N.2     1  UNL1       -0.1821
      3 C         140.6149  141.6891  163.8215 C.2     1  UNL1        0.0783
      4 C         140.2922  142.8300  162.9025 C.3     1  UNL1        0.0737
      5 C         140.6137  142.4018  161.5014 C.3     1  UNL1        0.1244
      6 C         140.4462  141.6827  165.3120 C.2     1  UNL1        0.0143
      7 C         140.9570  142.8320  166.1295 C.2     1  UNL1       -0.0186
      8 C         140.7883  142.8255  167.6199 C.3     1  UNL1        0.0725
      9 C         140.1089  141.6699  168.2929 C.2     1  UNL1        0.0933
     10 N         139.8010  141.3869  169.7335 N.am    1  UNL1       -0.1431
     11 C         139.1000  140.0628  169.8062 C.2     1  UNL1        0.4298
     12 O         138.6103  139.3919  171.0553 O.2     1  UNL1       -0.2238
     13 O         138.9746  139.5274  168.4106 O.3     1  UNL1       -0.4079
     14 C         139.5981  140.5206  167.4753 C.2     1  UNL1        0.1617
     15 C         139.7668  140.5271  165.9849 C.2     1  UNL1        0.0396
     16 C         142.4639  138.5336  158.0303 C.ar    1  UNL1        0.0685
     17 C         141.0669  138.3945  158.5583 C.ar    1  UNL1        0.0116
     18 C         140.6240  139.2154  159.7330 C.ar    1  UNL1        0.0170
     19 C         141.5781  140.1754  160.3796 C.ar    1  UNL1        0.0694
     20 C         142.9751  140.3144  159.8515 C.ar    1  UNL1        0.0170
     21 C         143.4181  139.4936  158.6769 C.ar    1  UNL1        0.0116
     22 N         143.3497  136.8917  155.6808 N.1     1  UNL1       -0.1908
     23 C         142.9068  137.7126  156.8556 C.1     1  UNL1        0.1004
     24 C         140.4437  143.2331  160.2644 C.ar    1  UNL1       -0.0020
     25 C         139.5330  142.7675  159.1672 C.ar    1  UNL1       -0.0026
     26 C         139.3630  143.5988  157.9303 C.ar    1  UNL1        0.0009
     27 C         140.1036  144.8957  157.7906 C.ar    1  UNL1        0.0140
     28 C         141.0143  145.3613  158.8878 C.ar    1  UNL1        0.0009
     29 C         141.1843  144.5300  160.1248 C.ar    1  UNL1       -0.0026
     30 C         139.9336  145.7270  156.5537 C.2     1  UNL1        0.0729
     31 O         139.4552  147.1445  156.6626 O.co2   1  UNL1       -0.5446
     32 O         140.2419  145.1408  155.2078 O.co2   1  UNL1       -0.5446
@<TRIPOS>UNITY_ATOM_ATTR
31 1
charge -1
@<TRIPOS>BOND
     1    22    23    3
     2    23    16    1
     3    16    17   ar
     4    17    18   ar
     5    18    19   ar
     6    19     1    1
     7     1     2    1
     8     2     3    2
     9     3     6    1
    10     6     7    2
    11     7     8    1
    12     8     9    1
    13     9    10    2
    14    10    11    1
    15    11    12    2
    16    11    13    1
    17    13    14    1
    18    14    15    2
    19     3     4    1
    20     4     5    1
    21     5    24    1
    22    24    25   ar
    23    25    26   ar
    24    26    27   ar
    25    27    30    1
    26    30    31   ar
    27    30    32   ar
    28    27    28   ar
    29    28    29   ar
    30    19    20   ar
    31    20    21   ar
    32    21    16   ar
    33     5     1    1
    34    29    24   ar
    35    15     6    1
    36    14     9    1
