@<TRIPOS>MOLECULE
*****
 35 38 0 0 0
SMALL
GASTEIGER

@<TRIPOS>ATOM
      1 C         140.7242  139.8403  169.8383 C.3     1  UNL1        0.1459
      2 O         140.2935  139.1324  171.0886 O.3     1  UNL1       -0.3813
      3 H         139.3307  139.2022  171.1844 H       1  UNL1        0.2105
      4 C         139.7038  140.5101  168.9662 C.3     1  UNL1        0.1204
      5 O         137.6412  138.6786  167.7868 O.2     1  UNL1       -0.2701
      6 C         138.6595  139.3315  166.8998 C.2     1  UNL1        0.2469
      7 N         139.6908  140.2473  167.4895 N.am    1  UNL1       -0.2985
      8 H         140.3591  140.6758  166.9073 H       1  UNL1        0.1498
      9 C         138.6465  139.0687  165.4231 C.2     1  UNL1        0.0665
     10 C         138.8957  137.6830  164.9057 C.2     1  UNL1        0.0931
     11 N         138.8827  137.4201  163.4289 N.am    1  UNL1       -0.1740
     12 C         138.6204  138.5430  162.4696 C.2     1  UNL1        0.2687
     13 O         138.6074  138.2801  160.9929 O.2     1  UNL1       -0.2680
     14 C         138.3712  139.9288  162.9870 C.2     1  UNL1        0.0519
     15 C         138.1089  141.0516  162.0276 C.2     1  UNL1        0.0039
     16 C         137.8596  142.4373  162.5450 C.2     1  UNL1       -0.0041
     17 C         137.8727  142.7001  164.0217 C.2     1  UNL1       -0.0214
     18 C         138.1349  141.5773  164.9811 C.3     1  UNL1        0.0526
     19 C         138.3842  140.1916  164.4637 C.2     1  UNL1       -0.0077
     20 C         142.1752  139.8784  169.4599 C.3     1  UNL1        0.1034
     21 N         142.5930  140.4759  168.1491 N.3     1  UNL1       -0.2704
     22 C         142.8659  141.9475  168.0486 C.3     1  UNL1        0.0759
     23 C         143.2837  142.5450  166.7378 C.3     1  UNL1        0.0609
     24 C         143.4286  141.6710  165.5273 C.3     1  UNL1        0.1687
     25 C         143.1557  140.1995  165.6277 C.3     1  UNL1        0.0609
     26 C         142.7378  139.6019  166.9387 C.3     1  UNL1        0.0759
     27 O         143.8464  142.2685  164.2165 O.3     1  UNL1       -0.4790
     28 C         142.8915  143.1331  163.4480 C.ar    1  UNL1        0.1393
     29 C         142.5786  144.5182  163.9312 C.ar    1  UNL1        0.0378
     30 C         141.6236  145.3828  163.1627 C.ar    1  UNL1        0.0154
     31 C         140.9816  144.8623  161.9110 C.ar    1  UNL1        0.0684
     32 CL        140.0267  145.7269  161.1425 Cl      1  UNL1       -0.0814
     33 C         141.2945  143.4772  161.4278 C.ar    1  UNL1        0.0712
     34 CL        140.6525  142.9566  160.1760 Cl      1  UNL1       -0.0813
     35 C         142.2494  142.6126  162.1963 C.ar    1  UNL1        0.0491
@<TRIPOS>BOND
     1     5     6    2
     2     6     7   am
     3     7     4    1
     4     4     1    1
     5     1     2    1
     6     1    20    1
     7    20    21    1
     8    21    22    1
     9    22    23    1
    10    23    24    1
    11    24    27    1
    12    27    28    1
    13    28    29   ar
    14    29    30   ar
    15    30    31   ar
    16    31    32    1
    17    31    33   ar
    18    33    34    1
    19    33    35   ar
    20    24    25    1
    21    25    26    1
    22     6     9    1
    23     9    10    1
    24    10    11    2
    25    11    12    1
    26    12    13    2
    27    12    14    1
    28    14    15    2
    29    15    16    1
    30    16    17    2
    31    17    18    1
    32    18    19    1
    33    26    21    1
    34    19     9    2
    35    35    28   ar
    36    19    14    1
    37     7     8    1
    38     2     3    1
@<TRIPOS>MOLECULE
*****
 35 38 0 0 0
SMALL
GASTEIGER

@<TRIPOS>ATOM
      1 C         137.8512  139.5753  160.7286 C.3     1  UNL1        0.1459
      2 O         136.3931  139.5761  160.3767 O.3     1  UNL1       -0.3813
      3 H         136.1974  140.3393  159.8110 H       1  UNL1        0.2105
      4 C         138.7488  140.6589  160.2087 C.3     1  UNL1        0.1204
      5 O         139.7529  142.6716  162.1939 O.2     1  UNL1       -0.2701
      6 C         140.7017  141.6841  161.5817 C.2     1  UNL1        0.2469
      7 N         140.1997  140.6778  160.5891 N.am    1  UNL1       -0.2985
      8 H         140.8224  140.0297  160.1874 H       1  UNL1        0.1498
      9 C         142.1525  141.7030  161.9621 C.2     1  UNL1        0.0665
     10 C         143.0897  142.6674  161.2975 C.2     1  UNL1        0.0931
     11 N         144.5405  142.6863  161.6780 N.am    1  UNL1       -0.1740
     12 C         145.0542  141.7408  162.7230 C.2     1  UNL1        0.2687
     13 O         146.5050  141.7597  163.1034 O.2     1  UNL1       -0.2680
     14 C         144.1171  140.7763  163.3876 C.2     1  UNL1        0.0519
     15 C         144.6308  139.8308  164.4327 C.2     1  UNL1        0.0039
     16 C         143.6937  138.8665  165.0972 C.2     1  UNL1       -0.0041
     17 C         142.2428  138.8476  164.7168 C.2     1  UNL1       -0.0214
     18 C         141.7291  139.7930  163.6718 C.3     1  UNL1        0.0526
     19 C         142.6662  140.7574  163.0072 C.2     1  UNL1       -0.0077
     20 C         138.4118  138.4909  161.6003 C.3     1  UNL1        0.1034
     21 N         138.4371  138.6642  163.0900 N.3     1  UNL1       -0.2704
     22 C         138.0303  139.9728  163.7000 C.3     1  UNL1        0.0759
     23 C         138.0556  140.1461  165.1897 C.3     1  UNL1        0.0609
     24 C         138.4876  139.0106  166.0696 C.3     1  UNL1        0.1687
     25 C         138.8944  137.7019  165.4597 C.3     1  UNL1        0.0609
     26 C         138.8691  137.5288  163.9699 C.3     1  UNL1        0.0759
     27 O         138.5129  139.1838  167.5593 O.3     1  UNL1       -0.4790
     28 C         139.5439  140.0694  168.1940 C.ar    1  UNL1        0.1393
     29 C         139.4571  140.3929  169.6561 C.ar    1  UNL1        0.0378
     30 C         140.4881  141.2785  170.2908 C.ar    1  UNL1        0.0154
     31 C         141.6059  141.8405  169.4634 C.ar    1  UNL1        0.0684
     32 CL        142.6369  142.7261  170.0981 Cl      1  UNL1       -0.0814
     33 C         141.6927  141.5170  168.0013 C.ar    1  UNL1        0.0712
     34 CL        142.8105  142.0790  167.1738 Cl      1  UNL1       -0.0813
     35 C         140.6617  140.6314  167.3666 C.ar    1  UNL1        0.0491
@<TRIPOS>BOND
     1     5     6    2
     2     6     7   am
     3     7     4    1
     4     4     1    1
     5     1     2    1
     6     1    20    1
     7    20    21    1
     8    21    22    1
     9    22    23    1
    10    23    24    1
    11    24    27    1
    12    27    28    1
    13    28    29   ar
    14    29    30   ar
    15    30    31   ar
    16    31    32    1
    17    31    33   ar
    18    33    34    1
    19    33    35   ar
    20    24    25    1
    21    25    26    1
    22     6     9    1
    23     9    10    1
    24    10    11    2
    25    11    12    1
    26    12    13    2
    27    12    14    1
    28    14    15    2
    29    15    16    1
    30    16    17    2
    31    17    18    1
    32    18    19    1
    33    26    21    1
    34    19     9    2
    35    35    28   ar
    36    19    14    1
    37     7     8    1
    38     2     3    1
@<TRIPOS>MOLECULE
*****
 35 38 0 0 0
SMALL
GASTEIGER

@<TRIPOS>ATOM
      1 C         142.0509  139.8301  170.0137 C.3     1  UNL1        0.1459
      2 O         142.8106  140.2525  171.2362 O.3     1  UNL1       -0.3813
      3 H         143.6958  139.8562  171.2198 H       1  UNL1        0.2105
      4 C         142.6959  138.9266  169.0048 C.3     1  UNL1        0.1204
      5 O         144.2781  137.2961  167.0457 O.2     1  UNL1       -0.2701
      6 C         143.5346  138.5131  166.5808 C.2     1  UNL1        0.2469
      7 N         142.7435  139.3284  167.5604 N.am    1  UNL1       -0.2985
      8 H         142.2556  140.1272  167.2553 H       1  UNL1        0.1498
      9 C         143.5822  138.9149  165.1364 C.2     1  UNL1        0.0665
     10 C         144.7644  139.6711  164.6069 C.2     1  UNL1        0.0931
     11 N         144.8120  140.0729  163.1624 N.am    1  UNL1       -0.1740
     12 C         143.6774  139.7184  162.2476 C.2     1  UNL1        0.2687
     13 O         143.7250  140.1201  160.8032 O.2     1  UNL1       -0.2680
     14 C         142.4951  138.9621  162.7771 C.2     1  UNL1        0.0519
     15 C         141.3605  138.6077  161.8623 C.2     1  UNL1        0.0039
     16 C         140.1783  137.8514  162.3919 C.2     1  UNL1       -0.0041
     17 C         140.1307  137.4497  163.8363 C.2     1  UNL1       -0.0214
     18 C         141.2653  137.8042  164.7511 C.3     1  UNL1        0.0526
     19 C         142.4475  138.5604  164.2216 C.2     1  UNL1       -0.0077
     20 C         140.6463  140.3112  169.8000 C.3     1  UNL1        0.1034
     21 N         140.1194  140.4927  168.4074 N.3     1  UNL1       -0.2704
     22 C         139.1588  139.4941  167.8329 C.3     1  UNL1        0.0759
     23 C         138.6319  139.6756  166.4403 C.3     1  UNL1        0.0609
     24 C         139.0655  140.8558  165.6222 C.3     1  UNL1        0.1687
     25 C         140.0261  141.8544  166.1967 C.3     1  UNL1        0.0609
     26 C         140.5531  141.6728  167.5894 C.3     1  UNL1        0.0759
     27 O         138.5386  141.0373  164.2296 O.3     1  UNL1       -0.4790
     28 C         138.9611  142.2250  163.4167 C.ar    1  UNL1        0.1393
     29 C         138.1992  143.5131  163.5186 C.ar    1  UNL1        0.0378
     30 C         138.6218  144.7008  162.7057 C.ar    1  UNL1        0.0154
     31 C         139.8062  144.6005  161.7909 C.ar    1  UNL1        0.0684
     32 CL        140.2287  145.7882  160.9780 Cl      1  UNL1       -0.0814
     33 C         140.5681  143.3124  161.6889 C.ar    1  UNL1        0.0712
     34 CL        141.7526  143.2121  160.7740 Cl      1  UNL1       -0.0813
     35 C         140.1456  142.1247  162.5018 C.ar    1  UNL1        0.0491
@<TRIPOS>BOND
     1     5     6    2
     2     6     7   am
     3     7     4    1
     4     4     1    1
     5     1     2    1
     6     1    20    1
     7    20    21    1
     8    21    22    1
     9    22    23    1
    10    23    24    1
    11    24    27    1
    12    27    28    1
    13    28    29   ar
    14    29    30   ar
    15    30    31   ar
    16    31    32    1
    17    31    33   ar
    18    33    34    1
    19    33    35   ar
    20    24    25    1
    21    25    26    1
    22     6     9    1
    23     9    10    1
    24    10    11    2
    25    11    12    1
    26    12    13    2
    27    12    14    1
    28    14    15    2
    29    15    16    1
    30    16    17    2
    31    17    18    1
    32    18    19    1
    33    26    21    1
    34    19     9    2
    35    35    28   ar
    36    19    14    1
    37     7     8    1
    38     2     3    1
@<TRIPOS>MOLECULE
*****
 35 38 0 0 0
SMALL
GASTEIGER

@<TRIPOS>ATOM
      1 C         139.6531  145.4770  161.9407 C.3     1  UNL1        0.1459
      2 O         140.2922  146.7769  162.3299 O.3     1  UNL1       -0.3813
      3 H         141.0054  146.9860  161.7066 H       1  UNL1        0.2105
      4 C         140.1509  144.7258  160.7415 C.3     1  UNL1        0.1204
      5 O         143.0494  144.1368  160.2400 O.2     1  UNL1       -0.2701
      6 C         142.1186  143.0322  160.6443 C.2     1  UNL1        0.2469
      7 N         140.6694  143.3267  160.8950 N.am    1  UNL1       -0.2985
      8 H         140.0585  142.6017  161.1603 H       1  UNL1        0.1498
      9 C         142.6371  141.6330  160.7978 C.2     1  UNL1        0.0665
     10 C         142.5405  140.6677  159.6538 C.2     1  UNL1        0.0931
     11 N         143.0590  139.2685  159.8073 N.am    1  UNL1       -0.1740
     12 C         143.6741  138.8347  161.1048 C.2     1  UNL1        0.2687
     13 O         144.1926  137.4356  161.2583 O.2     1  UNL1       -0.2680
     14 C         143.7707  139.8001  162.2488 C.2     1  UNL1        0.0519
     15 C         144.3858  139.3663  163.5463 C.2     1  UNL1        0.0039
     16 C         144.4824  140.3317  164.6902 C.2     1  UNL1       -0.0041
     17 C         143.9639  141.7309  164.5367 C.2     1  UNL1       -0.0214
     18 C         143.3488  142.1646  163.2393 C.3     1  UNL1        0.0526
     19 C         143.2522  141.1993  162.0953 C.2     1  UNL1       -0.0077
     20 C         138.5161  144.9281  162.7507 C.3     1  UNL1        0.1034
     21 N         138.6940  143.6579  163.5285 N.3     1  UNL1       -0.2704
     22 C         139.8552  143.5091  164.4664 C.3     1  UNL1        0.0759
     23 C         140.0330  142.2389  165.2442 C.3     1  UNL1        0.0609
     24 C         139.0496  141.1175  165.0842 C.3     1  UNL1        0.1687
     25 C         137.8885  141.2663  164.1464 C.3     1  UNL1        0.0609
     26 C         137.7106  142.5366  163.3685 C.3     1  UNL1        0.0759
     27 O         139.2275  139.8474  165.8620 O.3     1  UNL1       -0.4790
     28 C         140.1839  139.8026  167.0166 C.ar    1  UNL1        0.1393
     29 C         141.6346  139.5052  166.7778 C.ar    1  UNL1        0.0378
     30 C         142.5910  139.4605  167.9325 C.ar    1  UNL1        0.0154
     31 C         142.0968  139.7132  169.3260 C.ar    1  UNL1        0.0684
     32 CL        143.0532  139.6685  170.4806 Cl      1  UNL1       -0.0814
     33 C         140.6461  140.0106  169.5648 C.ar    1  UNL1        0.0712
     34 CL        140.1518  140.2634  170.9583 Cl      1  UNL1       -0.0813
     35 C         139.6897  140.0554  168.4101 C.ar    1  UNL1        0.0491
@<TRIPOS>BOND
     1     5     6    2
     2     6     7   am
     3     7     4    1
     4     4     1    1
     5     1     2    1
     6     1    20    1
     7    20    21    1
     8    21    22    1
     9    22    23    1
    10    23    24    1
    11    24    27    1
    12    27    28    1
    13    28    29   ar
    14    29    30   ar
    15    30    31   ar
    16    31    32    1
    17    31    33   ar
    18    33    34    1
    19    33    35   ar
    20    24    25    1
    21    25    26    1
    22     6     9    1
    23     9    10    1
    24    10    11    2
    25    11    12    1
    26    12    13    2
    27    12    14    1
    28    14    15    2
    29    15    16    1
    30    16    17    2
    31    17    18    1
    32    18    19    1
    33    26    21    1
    34    19     9    2
    35    35    28   ar
    36    19    14    1
    37     7     8    1
    38     2     3    1
@<TRIPOS>MOLECULE
*****
 35 38 0 0 0
SMALL
GASTEIGER

@<TRIPOS>ATOM
      1 C         144.4512  142.1649  158.7885 C.3     1  UNL1        0.1459
      2 O         144.7655  143.1909  157.7405 O.3     1  UNL1       -0.3813
      3 H         144.9986  144.0295  158.1686 H       1  UNL1        0.2105
      4 C         144.5289  142.5288  160.2416 C.3     1  UNL1        0.1204
      5 O         144.5101  144.5849  162.4262 O.2     1  UNL1       -0.2701
      6 C         143.2625  143.8141  162.1108 C.2     1  UNL1        0.2469
      7 N         143.2719  142.7862  161.0186 N.am    1  UNL1       -0.2985
      8 H         142.4530  142.2803  160.8116 H       1  UNL1        0.1498
      9 C         142.0054  144.0715  162.8878 C.2     1  UNL1        0.0665
     10 C         140.9442  144.9678  162.3219 C.2     1  UNL1        0.0931
     11 N         139.6871  145.2251  163.0988 N.am    1  UNL1       -0.1740
     12 C         139.4914  144.5861  164.4417 C.2     1  UNL1        0.2687
     13 O         138.2343  144.8435  165.2186 O.2     1  UNL1       -0.2680
     14 C         140.5527  143.6898  165.0077 C.2     1  UNL1        0.0519
     15 C         140.3569  143.0508  166.3506 C.2     1  UNL1        0.0039
     16 C         141.4182  142.1545  166.9165 C.2     1  UNL1       -0.0041
     17 C         142.6752  141.8972  166.1396 C.2     1  UNL1       -0.0214
     18 C         142.8710  142.5362  164.7967 C.3     1  UNL1        0.0526
     19 C         141.8097  143.4325  164.2307 C.2     1  UNL1       -0.0077
     20 C         144.0592  140.7748  158.3834 C.3     1  UNL1        0.1034
     21 N         142.9065  140.0935  159.0596 N.3     1  UNL1       -0.2704
     22 C         141.4990  140.4477  158.6808 C.3     1  UNL1        0.0759
     23 C         140.3463  139.7664  159.3569 C.3     1  UNL1        0.0609
     24 C         140.6012  138.7309  160.4119 C.3     1  UNL1        0.1687
     25 C         142.0087  138.3768  160.7907 C.3     1  UNL1        0.0609
     26 C         143.1614  139.0581  160.1145 C.3     1  UNL1        0.0759
     27 O         139.4485  138.0497  161.0880 O.3     1  UNL1       -0.4790
     28 C         139.1306  138.3585  162.5211 C.ar    1  UNL1        0.1393
     29 C         139.3375  137.3137  163.5772 C.ar    1  UNL1        0.0378
     30 C         139.0196  137.6225  165.0102 C.ar    1  UNL1        0.0154
     31 C         138.4947  138.9762  165.3871 C.ar    1  UNL1        0.0684
     32 CL        138.1767  139.2850  166.8201 Cl      1  UNL1       -0.0814
     33 C         138.2877  140.0210  164.3309 C.ar    1  UNL1        0.0712
     34 CL        137.7627  141.3747  164.7078 Cl      1  UNL1       -0.0813
     35 C         138.6056  139.7121  162.8979 C.ar    1  UNL1        0.0491
@<TRIPOS>BOND
     1     5     6    2
     2     6     7   am
     3     7     4    1
     4     4     1    1
     5     1     2    1
     6     1    20    1
     7    20    21    1
     8    21    22    1
     9    22    23    1
    10    23    24    1
    11    24    27    1
    12    27    28    1
    13    28    29   ar
    14    29    30   ar
    15    30    31   ar
    16    31    32    1
    17    31    33   ar
    18    33    34    1
    19    33    35   ar
    20    24    25    1
    21    25    26    1
    22     6     9    1
    23     9    10    1
    24    10    11    2
    25    11    12    1
    26    12    13    2
    27    12    14    1
    28    14    15    2
    29    15    16    1
    30    16    17    2
    31    17    18    1
    32    18    19    1
    33    26    21    1
    34    19     9    2
    35    35    28   ar
    36    19    14    1
    37     7     8    1
    38     2     3    1
@<TRIPOS>MOLECULE
*****
 35 38 0 0 0
SMALL
GASTEIGER

@<TRIPOS>ATOM
      1 C         139.7607  138.6217  160.8020 C.3     1  UNL1        0.1459
      2 O         139.7171  139.0744  159.3727 O.3     1  UNL1       -0.3813
      3 H         140.6206  139.1334  159.0245 H       1  UNL1        0.2105
      4 C         141.0791  138.3405  161.4599 C.3     1  UNL1        0.1204
      5 O         143.1585  140.2714  160.4864 O.2     1  UNL1       -0.2701
      6 C         142.7139  140.3070  161.9186 C.2     1  UNL1        0.2469
      7 N         141.6742  139.3415  162.4053 N.am    1  UNL1       -0.2985
      8 H         141.3824  139.3649  163.3453 H       1  UNL1        0.1498
      9 C         143.3089  141.3080  162.8640 C.2     1  UNL1        0.0665
     10 C         144.5194  140.9479  163.6733 C.2     1  UNL1        0.0931
     11 N         145.1145  141.9490  164.6187 N.am    1  UNL1       -0.1740
     12 C         144.4991  143.3101  164.7547 C.2     1  UNL1        0.2687
     13 O         145.0942  144.3112  165.7001 O.2     1  UNL1       -0.2680
     14 C         143.2886  143.6703  163.9453 C.2     1  UNL1        0.0519
     15 C         142.6732  145.0315  164.0814 C.2     1  UNL1        0.0039
     16 C         141.4628  145.3915  163.2720 C.2     1  UNL1       -0.0041
     17 C         140.8677  144.3905  162.3266 C.2     1  UNL1       -0.0214
     18 C         141.4831  143.0293  162.1906 C.3     1  UNL1        0.0526
     19 C         142.6935  142.6692  163.0000 C.2     1  UNL1       -0.0077
     20 C         138.4858  138.4502  161.5736 C.3     1  UNL1        0.1034
     21 N         138.4869  138.5979  163.0663 N.3     1  UNL1       -0.2704
     22 C         138.1232  139.9127  163.6901 C.3     1  UNL1        0.0759
     23 C         138.1243  140.0604  165.1828 C.3     1  UNL1        0.0609
     24 C         138.4890  138.8933  166.0517 C.3     1  UNL1        0.1687
     25 C         138.8526  137.5786  165.4279 C.3     1  UNL1        0.0609
     26 C         138.8516  137.4309  163.9351 C.3     1  UNL1        0.0759
     27 O         138.4901  139.0410  167.5444 O.3     1  UNL1       -0.4790
     28 C         139.4330  140.0045  168.2020 C.ar    1  UNL1        0.1393
     29 C         139.1396  140.5185  169.5803 C.ar    1  UNL1        0.0378
     30 C         140.0826  141.4820  170.2380 C.ar    1  UNL1        0.0154
     31 C         141.3190  141.9314  169.5174 C.ar    1  UNL1        0.0684
     32 CL        142.2620  142.8949  170.1750 Cl      1  UNL1       -0.0814
     33 C         141.6124  141.4174  168.1391 C.ar    1  UNL1        0.0712
     34 CL        142.8488  141.8668  167.4184 Cl      1  UNL1       -0.0813
     35 C         140.6694  140.4539  167.4814 C.ar    1  UNL1        0.0491
@<TRIPOS>BOND
     1     5     6    2
     2     6     7   am
     3     7     4    1
     4     4     1    1
     5     1     2    1
     6     1    20    1
     7    20    21    1
     8    21    22    1
     9    22    23    1
    10    23    24    1
    11    24    27    1
    12    27    28    1
    13    28    29   ar
    14    29    30   ar
    15    30    31   ar
    16    31    32    1
    17    31    33   ar
    18    33    34    1
    19    33    35   ar
    20    24    25    1
    21    25    26    1
    22     6     9    1
    23     9    10    1
    24    10    11    2
    25    11    12    1
    26    12    13    2
    27    12    14    1
    28    14    15    2
    29    15    16    1
    30    16    17    2
    31    17    18    1
    32    18    19    1
    33    26    21    1
    34    19     9    2
    35    35    28   ar
    36    19    14    1
    37     7     8    1
    38     2     3    1
@<TRIPOS>MOLECULE
*****
 35 38 0 0 0
SMALL
GASTEIGER

@<TRIPOS>ATOM
      1 C         143.9313  141.0711  158.1661 C.3     1  UNL1        0.1459
      2 O         145.0870  140.2716  157.6417 O.3     1  UNL1       -0.3813
      3 H         144.7713  139.4042  157.3437 H       1  UNL1        0.2105
      4 C         142.5511  140.4836  158.1654 C.3     1  UNL1        0.1204
      5 O         142.8274  137.7476  159.3646 O.2     1  UNL1       -0.2701
      6 C         142.0105  138.7938  160.0634 C.2     1  UNL1        0.2469
      7 N         141.8724  140.1618  159.4638 N.am    1  UNL1       -0.2985
      8 H         141.3363  140.8484  159.9224 H       1  UNL1        0.1498
      9 C         141.3318  138.4720  161.3617 C.2     1  UNL1        0.0665
     10 C         139.8965  138.0362  161.3699 C.2     1  UNL1        0.0931
     11 N         139.2178  137.7144  162.6683 N.am    1  UNL1       -0.1740
     12 C         139.9743  137.8283  163.9585 C.2     1  UNL1        0.2687
     13 O         139.2956  137.5065  165.2568 O.2     1  UNL1       -0.2680
     14 C         141.4096  138.2641  163.9504 C.2     1  UNL1        0.0519
     15 C         142.1661  138.3781  165.2406 C.2     1  UNL1        0.0039
     16 C         143.6014  138.8139  165.2324 C.2     1  UNL1       -0.0041
     17 C         144.2801  139.1357  163.9340 C.2     1  UNL1       -0.0214
     18 C         143.5236  139.0218  162.6438 C.3     1  UNL1        0.0526
     19 C         142.0883  138.5860  162.6520 C.2     1  UNL1       -0.0077
     20 C         144.1558  142.4582  158.6912 C.3     1  UNL1        0.1034
     21 N         143.8312  142.7810  160.1196 N.3     1  UNL1       -0.2704
     22 C         142.6006  143.5731  160.4485 C.3     1  UNL1        0.0759
     23 C         142.2760  143.8960  161.8769 C.3     1  UNL1        0.0609
     24 C         143.1821  143.4268  162.9765 C.3     1  UNL1        0.1687
     25 C         144.4127  142.6347  162.6475 C.3     1  UNL1        0.0609
     26 C         144.7373  142.3119  161.2190 C.3     1  UNL1        0.0759
     27 O         142.8575  143.7496  164.4049 O.3     1  UNL1       -0.4790
     28 C         142.0303  142.7996  165.2192 C.ar    1  UNL1        0.1393
     29 C         142.5499  142.2860  166.5293 C.ar    1  UNL1        0.0378
     30 C         141.7227  141.3360  167.3437 C.ar    1  UNL1        0.0154
     31 C         140.3759  140.8996  166.8480 C.ar    1  UNL1        0.0684
     32 CL        139.5487  139.9496  167.6624 Cl      1  UNL1       -0.0814
     33 C         139.8564  141.4132  165.5379 C.ar    1  UNL1        0.0712
     34 CL        138.5095  140.9767  165.0422 Cl      1  UNL1       -0.0813
     35 C         140.6836  142.3632  164.7236 C.ar    1  UNL1        0.0491
@<TRIPOS>BOND
     1     5     6    2
     2     6     7   am
     3     7     4    1
     4     4     1    1
     5     1     2    1
     6     1    20    1
     7    20    21    1
     8    21    22    1
     9    22    23    1
    10    23    24    1
    11    24    27    1
    12    27    28    1
    13    28    29   ar
    14    29    30   ar
    15    30    31   ar
    16    31    32    1
    17    31    33   ar
    18    33    34    1
    19    33    35   ar
    20    24    25    1
    21    25    26    1
    22     6     9    1
    23     9    10    1
    24    10    11    2
    25    11    12    1
    26    12    13    2
    27    12    14    1
    28    14    15    2
    29    15    16    1
    30    16    17    2
    31    17    18    1
    32    18    19    1
    33    26    21    1
    34    19     9    2
    35    35    28   ar
    36    19    14    1
    37     7     8    1
    38     2     3    1
@<TRIPOS>MOLECULE
*****
 35 38 0 0 0
SMALL
GASTEIGER

@<TRIPOS>ATOM
      1 C         141.5583  138.6011  158.3391 C.3     1  UNL1        0.1459
      2 O         142.4750  137.4396  158.0934 O.3     1  UNL1       -0.3813
      3 H         143.3817  137.7629  157.9738 H       1  UNL1        0.2105
      4 C         142.1072  139.9969  158.3673 C.3     1  UNL1        0.1204
      5 O         144.2639  139.0440  160.2222 O.2     1  UNL1       -0.2701
      6 C         143.4064  140.2131  160.6067 C.2     1  UNL1        0.2469
      7 N         142.3280  140.6895  159.6793 N.am    1  UNL1       -0.2985
      8 H         141.7652  141.4569  159.9318 H       1  UNL1        0.1498
      9 C         143.6273  140.9058  161.9188 C.2     1  UNL1        0.0665
     10 C         144.2279  142.2799  161.9497 C.2     1  UNL1        0.0931
     11 N         144.4488  142.9726  163.2617 N.am    1  UNL1       -0.1740
     12 C         144.0691  142.2911  164.5428 C.2     1  UNL1        0.2687
     13 O         144.2899  142.9838  165.8549 O.2     1  UNL1       -0.2680
     14 C         143.4684  140.9170  164.5120 C.2     1  UNL1        0.0519
     15 C         143.0887  140.2355  165.7931 C.2     1  UNL1        0.0039
     16 C         142.4880  138.8614  165.7623 C.2     1  UNL1       -0.0041
     17 C         142.2671  138.1687  164.4502 C.2     1  UNL1       -0.0214
     18 C         142.6469  138.8502  163.1691 C.3     1  UNL1        0.0526
     19 C         143.2475  140.2243  163.2000 C.2     1  UNL1       -0.0077
     20 C         140.0927  138.3670  158.5566 C.3     1  UNL1        0.1034
     21 N         139.4314  138.8642  159.8078 N.3     1  UNL1       -0.2704
     22 C         138.5732  140.0937  159.7647 C.3     1  UNL1        0.0759
     23 C         137.9118  140.5909  161.0158 C.3     1  UNL1        0.0609
     24 C         138.1087  139.8586  162.3101 C.3     1  UNL1        0.1687
     25 C         138.9669  138.6291  162.3532 C.3     1  UNL1        0.0609
     26 C         139.6283  138.1319  161.1020 C.3     1  UNL1        0.0759
     27 O         137.4473  140.3558  163.5612 O.3     1  UNL1       -0.4790
     28 C         138.2266  140.4365  164.8403 C.ar    1  UNL1        0.1393
     29 C         138.1338  139.3278  165.8464 C.ar    1  UNL1        0.0378
     30 C         138.9131  139.4085  167.1255 C.ar    1  UNL1        0.0154
     31 C         139.7853  140.5978  167.3985 C.ar    1  UNL1        0.0684
     32 CL        140.5647  140.6785  168.6776 Cl      1  UNL1       -0.0814
     33 C         139.8782  141.7065  166.3925 C.ar    1  UNL1        0.0712
     34 CL        140.7505  142.8959  166.6655 Cl      1  UNL1       -0.0813
     35 C         139.0989  141.6258  165.1134 C.ar    1  UNL1        0.0491
@<TRIPOS>BOND
     1     5     6    2
     2     6     7   am
     3     7     4    1
     4     4     1    1
     5     1     2    1
     6     1    20    1
     7    20    21    1
     8    21    22    1
     9    22    23    1
    10    23    24    1
    11    24    27    1
    12    27    28    1
    13    28    29   ar
    14    29    30   ar
    15    30    31   ar
    16    31    32    1
    17    31    33   ar
    18    33    34    1
    19    33    35   ar
    20    24    25    1
    21    25    26    1
    22     6     9    1
    23     9    10    1
    24    10    11    2
    25    11    12    1
    26    12    13    2
    27    12    14    1
    28    14    15    2
    29    15    16    1
    30    16    17    2
    31    17    18    1
    32    18    19    1
    33    26    21    1
    34    19     9    2
    35    35    28   ar
    36    19    14    1
    37     7     8    1
    38     2     3    1
@<TRIPOS>MOLECULE
*****
 35 38 0 0 0
SMALL
GASTEIGER

@<TRIPOS>ATOM
      1 C         139.8612  138.7951  158.5847 C.3     1  UNL1        0.1459
      2 O         139.5205  137.7005  157.6174 O.3     1  UNL1       -0.3813
      3 H         140.3373  137.3261  157.2520 H       1  UNL1        0.2105
      4 C         141.2962  139.1458  158.8455 C.3     1  UNL1        0.1204
      5 O         144.0186  138.8671  160.0748 O.2     1  UNL1       -0.2701
      6 C         143.0232  139.8215  160.6651 C.2     1  UNL1        0.2469
      7 N         141.6620  139.9608  160.0504 N.am    1  UNL1       -0.2985
      8 H         141.0088  140.5872  160.4379 H       1  UNL1        0.1498
      9 C         143.3890  140.6366  161.8700 C.2     1  UNL1        0.0665
     10 C         144.0413  141.9765  161.6993 C.2     1  UNL1        0.0931
     11 N         144.4071  142.7915  162.9042 N.am    1  UNL1       -0.1740
     12 C         144.1207  142.2667  164.2799 C.2     1  UNL1        0.2687
     13 O         144.4865  143.0818  165.4848 O.2     1  UNL1       -0.2680
     14 C         143.4684  140.9267  164.4506 C.2     1  UNL1        0.0519
     15 C         143.1819  140.4019  165.8263 C.2     1  UNL1        0.0039
     16 C         142.5297  139.0620  165.9970 C.2     1  UNL1       -0.0041
     17 C         142.1639  138.2470  164.7921 C.2     1  UNL1       -0.0214
     18 C         142.4503  138.7718  163.4164 C.3     1  UNL1        0.0526
     19 C         143.1025  140.1117  163.2457 C.2     1  UNL1       -0.0077
     20 C         138.7670  139.5391  159.2913 C.3     1  UNL1        0.1034
     21 N         138.6188  139.4203  160.7791 N.3     1  UNL1       -0.2704
     22 C         139.0158  138.1512  161.4734 C.3     1  UNL1        0.0759
     23 C         138.8675  138.0324  162.9613 C.3     1  UNL1        0.0609
     24 C         138.3223  139.1826  163.7550 C.3     1  UNL1        0.1687
     25 C         137.9254  140.4516  163.0607 C.3     1  UNL1        0.0609
     26 C         138.0736  140.5704  161.5728 C.3     1  UNL1        0.0759
     27 O         138.1741  139.0637  165.2429 O.3     1  UNL1       -0.4790
     28 C         138.9289  139.9913  166.1483 C.ar    1  UNL1        0.1393
     29 C         139.4954  141.2707  165.6078 C.ar    1  UNL1        0.0378
     30 C         140.2503  142.1983  166.5132 C.ar    1  UNL1        0.0154
     31 C         140.4386  141.8465  167.9591 C.ar    1  UNL1        0.0684
     32 CL        141.1934  142.7741  168.8645 Cl      1  UNL1       -0.0814
     33 C         139.8721  140.5671  168.4996 C.ar    1  UNL1        0.0712
     34 CL        140.0604  140.2153  169.9456 Cl      1  UNL1       -0.0813
     35 C         139.1172  139.6395  167.5942 C.ar    1  UNL1        0.0491
@<TRIPOS>BOND
     1     5     6    2
     2     6     7   am
     3     7     4    1
     4     4     1    1
     5     1     2    1
     6     1    20    1
     7    20    21    1
     8    21    22    1
     9    22    23    1
    10    23    24    1
    11    24    27    1
    12    27    28    1
    13    28    29   ar
    14    29    30   ar
    15    30    31   ar
    16    31    32    1
    17    31    33   ar
    18    33    34    1
    19    33    35   ar
    20    24    25    1
    21    25    26    1
    22     6     9    1
    23     9    10    1
    24    10    11    2
    25    11    12    1
    26    12    13    2
    27    12    14    1
    28    14    15    2
    29    15    16    1
    30    16    17    2
    31    17    18    1
    32    18    19    1
    33    26    21    1
    34    19     9    2
    35    35    28   ar
    36    19    14    1
    37     7     8    1
    38     2     3    1
