@<TRIPOS>MOLECULE
*****
 28 30 0 0 0
SMALL
GASTEIGER

@<TRIPOS>ATOM
      1 N         139.5188  140.5899  169.2187 N.ar    1  UNL1       -0.1495
      2 N         138.3879  139.6488  169.5112 N.ar    1  UNL1       -0.0450
      3 N         137.9501  139.0333  168.2152 N.ar    1  UNL1       -0.1077
      4 C         138.8105  139.5939  167.1218 C.ar    1  UNL1        0.2058
      5 N         139.7800  140.5559  167.7420 N.ar    1  UNL1       -0.1297
      6 C         138.7176  139.2525  165.6641 C.ar    1  UNL1        0.0395
      7 C         138.2380  140.2800  164.6822 C.ar    1  UNL1        0.0063
      8 C         138.1451  139.9385  163.2246 C.ar    1  UNL1        0.0376
      9 C         138.5319  138.5695  162.7489 C.ar    1  UNL1        0.1453
     10 C         139.0115  137.5420  163.7308 C.ar    1  UNL1        0.0376
     11 C         139.1043  137.8835  165.1884 C.ar    1  UNL1        0.0063
     12 O         138.4390  138.2280  161.2911 O.3     1  UNL1       -0.4535
     13 C         139.6111  138.4721  160.3875 C.ar    1  UNL1        0.1454
     14 C         139.3884  138.9432  158.9809 C.ar    1  UNL1        0.0384
     15 C         140.5605  139.1873  158.0773 C.ar    1  UNL1        0.0145
     16 C         141.9553  138.9603  158.5802 C.ar    1  UNL1        0.0579
     17 CL        143.1274  139.2044  157.6766 Cl      1  UNL1       -0.0822
     18 C         142.1780  138.4891  159.9868 C.ar    1  UNL1        0.0145
     19 C         141.0059  138.2450  160.8904 C.ar    1  UNL1        0.0384
     20 C         140.2587  141.4192  170.2261 C.3     1  UNL1        0.1670
     21 N         140.2547  144.0152  170.1240 N.3     1  UNL1       -0.3202
     22 C         140.9100  142.7038  169.8069 C.3     1  UNL1        0.0831
     23 H         140.8309  144.7780  169.7683 H       1  UNL1        0.1189
     24 H         140.1529  144.1089  171.1346 H       1  UNL1        0.1189
     25 C         142.2166  142.6768  169.0707 C.3     1  UNL1        0.0593
     26 C         143.4356  142.0996  169.7272 C.2     1  UNL1        0.0517
     27 O         143.4739  140.6449  170.0907 O.co2   1  UNL1       -0.5491
     28 O         144.6162  142.9772  170.0201 O.co2   1  UNL1       -0.5491
@<TRIPOS>UNITY_ATOM_ATTR
27 1
charge -1
@<TRIPOS>BOND
     1    22    21    1
     2    22    25    1
     3    25    26    1
     4    26    27   ar
     5    26    28   ar
     6    22    20    1
     7    20     1    1
     8     1     2   ar
     9     2     3   ar
    10     3     4   ar
    11     4     6    1
    12     6     7   ar
    13     7     8   ar
    14     8     9   ar
    15     9    12    1
    16    12    13    1
    17    13    14   ar
    18    14    15   ar
    19    15    16   ar
    20    16    17    1
    21    16    18   ar
    22    18    19   ar
    23     9    10   ar
    24    10    11   ar
    25     4     5   ar
    26     5     1   ar
    27    11     6   ar
    28    19    13   ar
    29    21    23    1
    30    21    24    1
@<TRIPOS>MOLECULE
*****
 28 30 0 0 0
SMALL
GASTEIGER

@<TRIPOS>ATOM
      1 N         141.0420  140.0188  168.8045 N.ar    1  UNL1       -0.1495
      2 N         139.6677  139.7303  169.3318 N.ar    1  UNL1       -0.0450
      3 N         138.7648  139.4805  168.1603 N.ar    1  UNL1       -0.1077
      4 C         139.5812  139.6145  166.9090 C.ar    1  UNL1        0.2058
      5 N         140.9885  139.9472  167.3072 N.ar    1  UNL1       -0.1297
      6 C         139.0783  139.4456  165.5059 C.ar    1  UNL1        0.0395
      7 C         139.2954  138.1497  164.7824 C.ar    1  UNL1        0.0063
      8 C         138.7925  137.9807  163.3793 C.ar    1  UNL1        0.0376
      9 C         138.0727  139.1077  162.6998 C.ar    1  UNL1        0.1453
     10 C         137.8556  140.4036  163.4233 C.ar    1  UNL1        0.0376
     11 C         138.3584  140.5725  164.8263 C.ar    1  UNL1        0.0063
     12 O         137.5698  138.9387  161.2967 O.3     1  UNL1       -0.4535
     13 C         138.4309  139.3443  160.1374 C.ar    1  UNL1        0.1454
     14 C         138.1023  140.5817  159.3558 C.ar    1  UNL1        0.0384
     15 C         138.9635  140.9872  158.1965 C.ar    1  UNL1        0.0145
     16 C         140.1532  140.1554  157.8188 C.ar    1  UNL1        0.0579
     17 CL        141.0144  140.5610  156.6596 Cl      1  UNL1       -0.0822
     18 C         140.4818  138.9181  158.6005 C.ar    1  UNL1        0.0145
     19 C         139.6207  138.5125  159.7597 C.ar    1  UNL1        0.0384
     20 C         142.2567  140.3251  169.6297 C.3     1  UNL1        0.1670
     21 N         144.0628  142.0580  170.3256 N.3     1  UNL1       -0.3202
     22 C         142.6743  141.7488  169.8498 C.3     1  UNL1        0.0831
     23 H         144.1728  143.0676  170.4203 H       1  UNL1        0.1189
     24 H         144.7404  141.7041  169.6503 H       1  UNL1        0.1189
     25 C         141.7035  142.8633  169.5942 C.3     1  UNL1        0.0593
     26 C         140.6520  143.1905  170.6126 C.2     1  UNL1        0.0517
     27 O         139.8035  144.4163  170.4474 O.co2   1  UNL1       -0.5491
     28 O         140.4490  142.2918  171.7963 O.co2   1  UNL1       -0.5491
@<TRIPOS>UNITY_ATOM_ATTR
27 1
charge -1
@<TRIPOS>BOND
     1    22    21    1
     2    22    25    1
     3    25    26    1
     4    26    27   ar
     5    26    28   ar
     6    22    20    1
     7    20     1    1
     8     1     2   ar
     9     2     3   ar
    10     3     4   ar
    11     4     6    1
    12     6     7   ar
    13     7     8   ar
    14     8     9   ar
    15     9    12    1
    16    12    13    1
    17    13    14   ar
    18    14    15   ar
    19    15    16   ar
    20    16    17    1
    21    16    18   ar
    22    18    19   ar
    23     9    10   ar
    24    10    11   ar
    25     4     5   ar
    26     5     1   ar
    27    11     6   ar
    28    19    13   ar
    29    21    23    1
    30    21    24    1
@<TRIPOS>MOLECULE
*****
 28 30 0 0 0
SMALL
GASTEIGER

@<TRIPOS>ATOM
      1 N         139.4727  140.5101  169.0652 N.ar    1  UNL1       -0.1495
      2 N         138.3167  139.5940  169.3390 N.ar    1  UNL1       -0.0450
      3 N         137.8907  138.9836  168.0368 N.ar    1  UNL1       -0.1077
      4 C         138.7832  139.5223  166.9582 C.ar    1  UNL1        0.2058
      5 N         139.7609  140.4657  167.5939 N.ar    1  UNL1       -0.1297
      6 C         138.7107  139.1780  165.5000 C.ar    1  UNL1        0.0395
      7 C         139.0903  137.8037  165.0341 C.ar    1  UNL1        0.0063
      8 C         139.0178  137.4595  163.5760 C.ar    1  UNL1        0.0376
      9 C         138.5657  138.4896  162.5837 C.ar    1  UNL1        0.1453
     10 C         138.1862  139.8639  163.0497 C.ar    1  UNL1        0.0376
     11 C         138.2587  140.2082  164.5078 C.ar    1  UNL1        0.0063
     12 O         138.4932  138.1453  161.1255 O.3     1  UNL1       -0.4535
     13 C         139.5688  138.6126  160.1902 C.ar    1  UNL1        0.1454
     14 C         139.2011  139.2633  158.8897 C.ar    1  UNL1        0.0384
     15 C         140.2767  139.7306  157.9544 C.ar    1  UNL1        0.0145
     16 C         141.7199  139.5472  158.3196 C.ar    1  UNL1        0.0579
     17 CL        142.7954  140.0144  157.3843 Cl      1  UNL1       -0.0822
     18 C         142.0876  138.8965  159.6201 C.ar    1  UNL1        0.0145
     19 C         141.0121  138.4292  160.5554 C.ar    1  UNL1        0.0384
     20 C         140.2107  141.3270  170.0841 C.3     1  UNL1        0.1670
     21 N         141.9458  140.8555  171.9594 N.3     1  UNL1       -0.3202
     22 C         141.5955  140.9308  170.5028 C.3     1  UNL1        0.0831
     23 H         142.9207  140.5730  172.0604 H       1  UNL1        0.1189
     24 H         141.3443  140.1718  172.4189 H       1  UNL1        0.1189
     25 C         142.6299  140.6099  169.4650 C.3     1  UNL1        0.0593
     26 C         142.9109  139.1817  169.1027 C.2     1  UNL1        0.0517
     27 O         143.1775  138.8089  167.6744 O.co2   1  UNL1       -0.5491
     28 O         142.9253  138.1265  170.1685 O.co2   1  UNL1       -0.5491
@<TRIPOS>UNITY_ATOM_ATTR
27 1
charge -1
@<TRIPOS>BOND
     1    22    21    1
     2    22    25    1
     3    25    26    1
     4    26    27   ar
     5    26    28   ar
     6    22    20    1
     7    20     1    1
     8     1     2   ar
     9     2     3   ar
    10     3     4   ar
    11     4     6    1
    12     6     7   ar
    13     7     8   ar
    14     8     9   ar
    15     9    12    1
    16    12    13    1
    17    13    14   ar
    18    14    15   ar
    19    15    16   ar
    20    16    17    1
    21    16    18   ar
    22    18    19   ar
    23     9    10   ar
    24    10    11   ar
    25     4     5   ar
    26     5     1   ar
    27    11     6   ar
    28    19    13   ar
    29    21    23    1
    30    21    24    1
@<TRIPOS>MOLECULE
*****
 28 30 0 0 0
SMALL
GASTEIGER

@<TRIPOS>ATOM
      1 N         139.5600  139.6934  167.6168 N.ar    1  UNL1       -0.1495
      2 N         138.2325  139.0146  167.7812 N.ar    1  UNL1       -0.0450
      3 N         137.6174  138.8639  166.4214 N.ar    1  UNL1       -0.1077
      4 C         138.5648  139.4495  165.4166 C.ar    1  UNL1        0.2058
      5 N         139.7654  139.9622  166.1554 N.ar    1  UNL1       -0.1297
      6 C         138.3494  139.5115  163.9334 C.ar    1  UNL1        0.0395
      7 C         138.6322  138.3084  163.0835 C.ar    1  UNL1        0.0063
      8 C         138.4168  138.3705  161.6004 C.ar    1  UNL1        0.0376
      9 C         137.9186  139.6357  160.9672 C.ar    1  UNL1        0.1453
     10 C         137.6358  140.8389  161.8171 C.ar    1  UNL1        0.0376
     11 C         137.8512  140.7768  163.3002 C.ar    1  UNL1        0.0063
     12 O         137.7032  139.6978  159.4840 O.3     1  UNL1       -0.4535
     13 C         138.3973  140.7481  158.6686 C.ar    1  UNL1        0.1454
     14 C         139.8444  141.0555  158.9166 C.ar    1  UNL1        0.0384
     15 C         140.5385  142.1059  158.1012 C.ar    1  UNL1        0.0145
     16 C         139.7855  142.8489  157.0378 C.ar    1  UNL1        0.0579
     17 CL        140.4796  143.8993  156.2224 Cl      1  UNL1       -0.0822
     18 C         138.3384  142.5416  156.7897 C.ar    1  UNL1        0.0145
     19 C         137.6443  141.4912  157.6051 C.ar    1  UNL1        0.0384
     20 C         140.5145  140.0422  168.7201 C.3     1  UNL1        0.1670
     21 N         138.9138  139.7035  170.7382 N.3     1  UNL1       -0.3202
     22 C         139.9899  140.4912  170.0517 C.3     1  UNL1        0.0831
     23 H         138.6798  140.1489  171.6254 H       1  UNL1        0.1189
     24 H         139.2450  138.7543  170.9111 H       1  UNL1        0.1189
     25 C         140.5415  141.7280  170.6968 C.3     1  UNL1        0.0593
     26 C         139.8670  143.0505  170.4820 C.2     1  UNL1        0.0517
     27 O         138.9072  143.5781  171.5069 O.co2   1  UNL1       -0.5491
     28 O         140.1522  143.8453  169.2423 O.co2   1  UNL1       -0.5491
@<TRIPOS>UNITY_ATOM_ATTR
27 1
charge -1
@<TRIPOS>BOND
     1    22    21    1
     2    22    25    1
     3    25    26    1
     4    26    27   ar
     5    26    28   ar
     6    22    20    1
     7    20     1    1
     8     1     2   ar
     9     2     3   ar
    10     3     4   ar
    11     4     6    1
    12     6     7   ar
    13     7     8   ar
    14     8     9   ar
    15     9    12    1
    16    12    13    1
    17    13    14   ar
    18    14    15   ar
    19    15    16   ar
    20    16    17    1
    21    16    18   ar
    22    18    19   ar
    23     9    10   ar
    24    10    11   ar
    25     4     5   ar
    26     5     1   ar
    27    11     6   ar
    28    19    13   ar
    29    21    23    1
    30    21    24    1
@<TRIPOS>MOLECULE
*****
 28 30 0 0 0
SMALL
GASTEIGER

@<TRIPOS>ATOM
      1 N         139.7585  139.6200  167.5631 N.ar    1  UNL1       -0.1495
      2 N         138.3598  139.0779  167.5641 N.ar    1  UNL1       -0.0450
      3 N         137.9353  138.8881  166.1380 N.ar    1  UNL1       -0.1077
      4 C         139.0715  139.3129  165.2557 C.ar    1  UNL1        0.2058
      5 N         140.1983  139.7652  166.1364 N.ar    1  UNL1       -0.1297
      6 C         139.0795  139.2895  163.7558 C.ar    1  UNL1        0.0395
      7 C         138.6506  138.0531  163.0228 C.ar    1  UNL1        0.0063
      8 C         138.6586  138.0297  161.5230 C.ar    1  UNL1        0.0376
      9 C         139.0955  139.2427  160.7563 C.ar    1  UNL1        0.1453
     10 C         139.5244  140.4790  161.4894 C.ar    1  UNL1        0.0376
     11 C         139.5164  140.5024  162.9891 C.ar    1  UNL1        0.0063
     12 O         139.1035  139.2193  159.2564 O.3     1  UNL1       -0.4535
     13 C         140.1855  138.4830  158.5236 C.ar    1  UNL1        0.1454
     14 C         139.8738  137.7772  157.2373 C.ar    1  UNL1        0.0384
     15 C         140.9560  137.0410  156.5044 C.ar    1  UNL1        0.0145
     16 C         142.3497  137.0105  157.0580 C.ar    1  UNL1        0.0579
     17 CL        143.4318  136.2743  156.3251 Cl      1  UNL1       -0.0822
     18 C         142.6614  137.7163  158.3443 C.ar    1  UNL1        0.0145
     19 C         141.5794  138.4525  159.0771 C.ar    1  UNL1        0.0384
     20 C         140.5741  139.9575  168.7759 C.3     1  UNL1        0.1670
     21 N         139.7362  139.3680  171.1634 N.3     1  UNL1       -0.3202
     22 C         139.8924  140.3607  170.0498 C.3     1  UNL1        0.0831
     23 H         139.2540  139.8089  171.9467 H       1  UNL1        0.1189
     24 H         140.6566  139.0495  171.4666 H       1  UNL1        0.1189
     25 C         139.3669  141.7565  170.2100 C.3     1  UNL1        0.0593
     26 C         140.2393  142.8229  170.8028 C.2     1  UNL1        0.0517
     27 O         140.0177  144.2612  170.4392 O.co2   1  UNL1       -0.5491
     28 O         141.3334  142.4511  171.7591 O.co2   1  UNL1       -0.5491
@<TRIPOS>UNITY_ATOM_ATTR
27 1
charge -1
@<TRIPOS>BOND
     1    22    21    1
     2    22    25    1
     3    25    26    1
     4    26    27   ar
     5    26    28   ar
     6    22    20    1
     7    20     1    1
     8     1     2   ar
     9     2     3   ar
    10     3     4   ar
    11     4     6    1
    12     6     7   ar
    13     7     8   ar
    14     8     9   ar
    15     9    12    1
    16    12    13    1
    17    13    14   ar
    18    14    15   ar
    19    15    16   ar
    20    16    17    1
    21    16    18   ar
    22    18    19   ar
    23     9    10   ar
    24    10    11   ar
    25     4     5   ar
    26     5     1   ar
    27    11     6   ar
    28    19    13   ar
    29    21    23    1
    30    21    24    1
@<TRIPOS>MOLECULE
*****
 28 30 0 0 0
SMALL
GASTEIGER

@<TRIPOS>ATOM
      1 N         142.6818  140.8964  168.4858 N.ar    1  UNL1       -0.1495
      2 N         143.0227  139.5113  168.9498 N.ar    1  UNL1       -0.0450
      3 N         143.1694  138.6395  167.7380 N.ar    1  UNL1       -0.1077
      4 C         142.9191  139.4858  166.5251 C.ar    1  UNL1        0.2058
      5 N         142.6178  140.8806  166.9873 N.ar    1  UNL1       -0.1297
      6 C         142.9625  139.0191  165.1002 C.ar    1  UNL1        0.0395
      7 C         141.8622  138.1543  164.5603 C.ar    1  UNL1        0.0063
      8 C         141.9056  137.6877  163.1355 C.ar    1  UNL1        0.0376
      9 C         143.0494  138.0858  162.2504 C.ar    1  UNL1        0.1453
     10 C         144.1497  138.9506  162.7902 C.ar    1  UNL1        0.0376
     11 C         144.1062  139.4172  164.2151 C.ar    1  UNL1        0.0063
     12 O         143.0928  137.6191  160.8255 O.3     1  UNL1       -0.4535
     13 C         142.4441  138.4370  159.7483 C.ar    1  UNL1        0.1454
     14 C         142.4771  137.9643  158.3251 C.ar    1  UNL1        0.0384
     15 C         141.8283  138.7822  157.2480 C.ar    1  UNL1        0.0145
     16 C         141.1466  140.0727  157.5940 C.ar    1  UNL1        0.0579
     17 CL        140.4979  140.8906  156.5169 Cl      1  UNL1       -0.0822
     18 C         141.1136  140.5454  159.0172 C.ar    1  UNL1        0.0145
     19 C         141.7623  139.7276  160.0944 C.ar    1  UNL1        0.0384
     20 C         142.4464  142.0881  169.3659 C.3     1  UNL1        0.1670
     21 N         141.8616  142.2190  171.8939 N.3     1  UNL1       -0.3202
     22 C         141.4341  142.0164  170.4704 C.3     1  UNL1        0.0831
     23 H         141.0509  142.1368  172.5074 H       1  UNL1        0.1189
     24 H         142.2731  143.1467  171.9965 H       1  UNL1        0.1189
     25 C         139.9942  141.7420  170.1516 C.3     1  UNL1        0.0593
     26 C         139.5110  140.3279  170.0221 C.2     1  UNL1        0.0517
     27 O         139.3626  139.4712  171.2444 O.co2   1  UNL1       -0.5491
     28 O         139.1762  139.7706  168.6704 O.co2   1  UNL1       -0.5491
@<TRIPOS>UNITY_ATOM_ATTR
27 1
charge -1
@<TRIPOS>BOND
     1    22    21    1
     2    22    25    1
     3    25    26    1
     4    26    27   ar
     5    26    28   ar
     6    22    20    1
     7    20     1    1
     8     1     2   ar
     9     2     3   ar
    10     3     4   ar
    11     4     6    1
    12     6     7   ar
    13     7     8   ar
    14     8     9   ar
    15     9    12    1
    16    12    13    1
    17    13    14   ar
    18    14    15   ar
    19    15    16   ar
    20    16    17    1
    21    16    18   ar
    22    18    19   ar
    23     9    10   ar
    24    10    11   ar
    25     4     5   ar
    26     5     1   ar
    27    11     6   ar
    28    19    13   ar
    29    21    23    1
    30    21    24    1
@<TRIPOS>MOLECULE
*****
 28 30 0 0 0
SMALL
GASTEIGER

@<TRIPOS>ATOM
      1 N         142.2962  139.4019  167.4698 N.ar    1  UNL1       -0.1495
      2 N         143.4445  138.4433  167.5825 N.ar    1  UNL1       -0.0450
      3 N         143.9363  138.1444  166.1973 N.ar    1  UNL1       -0.1077
      4 C         143.0921  138.9182  165.2286 C.ar    1  UNL1        0.2058
      5 N         142.0784  139.6954  166.0150 N.ar    1  UNL1       -0.1297
      6 C         143.2362  138.9154  163.7355 C.ar    1  UNL1        0.0395
      7 C         144.1537  139.8970  163.0687 C.ar    1  UNL1        0.0063
      8 C         144.2978  139.8940  161.5756 C.ar    1  UNL1        0.0376
      9 C         143.5245  138.9095  160.7494 C.ar    1  UNL1        0.1453
     10 C         142.6070  137.9279  161.4162 C.ar    1  UNL1        0.0376
     11 C         142.4629  137.9309  162.9092 C.ar    1  UNL1        0.0063
     12 O         143.6686  138.9067  159.2563 O.3     1  UNL1       -0.4535
     13 C         142.5354  138.4346  158.3943 C.ar    1  UNL1        0.1454
     14 C         141.2311  139.1753  158.3983 C.ar    1  UNL1        0.0384
     15 C         140.0979  138.7032  157.5362 C.ar    1  UNL1        0.0145
     16 C         140.2691  137.4905  156.6703 C.ar    1  UNL1        0.0579
     17 CL        139.1359  137.0184  155.8083 Cl      1  UNL1       -0.0822
     18 C         141.5734  136.7498  156.6663 C.ar    1  UNL1        0.0145
     19 C         142.7066  137.2218  157.5283 C.ar    1  UNL1        0.0384
     20 C         141.5046  139.9677  168.6115 C.3     1  UNL1        0.1670
     21 N         143.0628  139.3943  170.6098 N.3     1  UNL1       -0.3202
     22 C         142.1999  140.3775  169.8758 C.3     1  UNL1        0.0831
     23 H         143.4538  139.8388  171.4404 H       1  UNL1        0.1189
     24 H         143.8206  139.0860  170.0006 H       1  UNL1        0.1189
     25 C         142.0323  141.7706  170.4062 C.3     1  UNL1        0.0593
     26 C         143.0810  142.8080  170.1341 C.2     1  UNL1        0.0517
     27 O         143.9100  142.7271  168.8866 O.co2   1  UNL1       -0.5491
     28 O         143.3007  143.9261  171.1093 O.co2   1  UNL1       -0.5491
@<TRIPOS>UNITY_ATOM_ATTR
27 1
charge -1
@<TRIPOS>BOND
     1    22    21    1
     2    22    25    1
     3    25    26    1
     4    26    27   ar
     5    26    28   ar
     6    22    20    1
     7    20     1    1
     8     1     2   ar
     9     2     3   ar
    10     3     4   ar
    11     4     6    1
    12     6     7   ar
    13     7     8   ar
    14     8     9   ar
    15     9    12    1
    16    12    13    1
    17    13    14   ar
    18    14    15   ar
    19    15    16   ar
    20    16    17    1
    21    16    18   ar
    22    18    19   ar
    23     9    10   ar
    24    10    11   ar
    25     4     5   ar
    26     5     1   ar
    27    11     6   ar
    28    19    13   ar
    29    21    23    1
    30    21    24    1
@<TRIPOS>MOLECULE
*****
 28 30 0 0 0
SMALL
GASTEIGER

@<TRIPOS>ATOM
      1 N         139.3407  144.9334  170.8620 N.ar    1  UNL1       -0.1495
      2 N         138.7454  143.7804  171.6146 N.ar    1  UNL1       -0.0450
      3 N         139.3434  142.5156  171.0738 N.ar    1  UNL1       -0.1077
      4 C         140.3083  142.8867  169.9870 C.ar    1  UNL1        0.2058
      5 N         140.3067  144.3810  169.8561 N.ar    1  UNL1       -0.1297
      6 C         141.1305  141.9313  169.1738 C.ar    1  UNL1        0.0395
      7 C         141.7529  142.3849  167.8867 C.ar    1  UNL1        0.0063
      8 C         142.5751  141.4294  167.0736 C.ar    1  UNL1        0.0376
      9 C         142.7749  140.0204  167.5477 C.ar    1  UNL1        0.1453
     10 C         142.1525  139.5668  168.8349 C.ar    1  UNL1        0.0376
     11 C         141.3303  140.5223  169.6479 C.ar    1  UNL1        0.0063
     12 O         143.5971  139.0650  166.7345 O.3     1  UNL1       -0.4535
     13 C         143.2004  138.7471  165.3234 C.ar    1  UNL1        0.1454
     14 C         144.0730  139.1810  164.1831 C.ar    1  UNL1        0.0384
     15 C         143.6762  138.8631  162.7718 C.ar    1  UNL1        0.0145
     16 C         142.4068  138.1112  162.5009 C.ar    1  UNL1        0.0579
     17 CL        142.0101  137.7933  161.0898 Cl      1  UNL1       -0.0822
     18 C         141.5342  137.6772  163.6412 C.ar    1  UNL1        0.0145
     19 C         141.9310  137.9952  165.0524 C.ar    1  UNL1        0.0384
     20 C         139.0255  146.3840  171.0774 C.3     1  UNL1        0.1670
     21 N         136.6457  145.8840  171.9921 N.3     1  UNL1       -0.3202
     22 C         137.8475  146.7786  171.9179 C.3     1  UNL1        0.0831
     23 H         135.9461  146.3046  172.6037 H       1  UNL1        0.1189
     24 H         136.9209  144.9753  172.3647 H       1  UNL1        0.1189
     25 C         137.8712  148.0679  172.6843 C.3     1  UNL1        0.0593
     26 C         136.7348  148.4179  173.5986 C.2     1  UNL1        0.0517
     27 O         136.3819  149.8557  173.8399 O.co2   1  UNL1       -0.5491
     28 O         135.9514  147.3303  174.2716 O.co2   1  UNL1       -0.5491
@<TRIPOS>UNITY_ATOM_ATTR
27 1
charge -1
@<TRIPOS>BOND
     1    22    21    1
     2    22    25    1
     3    25    26    1
     4    26    27   ar
     5    26    28   ar
     6    22    20    1
     7    20     1    1
     8     1     2   ar
     9     2     3   ar
    10     3     4   ar
    11     4     6    1
    12     6     7   ar
    13     7     8   ar
    14     8     9   ar
    15     9    12    1
    16    12    13    1
    17    13    14   ar
    18    14    15   ar
    19    15    16   ar
    20    16    17    1
    21    16    18   ar
    22    18    19   ar
    23     9    10   ar
    24    10    11   ar
    25     4     5   ar
    26     5     1   ar
    27    11     6   ar
    28    19    13   ar
    29    21    23    1
    30    21    24    1
@<TRIPOS>MOLECULE
*****
 28 30 0 0 0
SMALL
GASTEIGER

@<TRIPOS>ATOM
      1 N         142.6675  139.9037  167.5250 N.ar    1  UNL1       -0.1495
      2 N         143.3567  138.5760  167.6363 N.ar    1  UNL1       -0.0450
      3 N         143.7026  138.1157  166.2512 N.ar    1  UNL1       -0.1077
      4 C         143.2271  139.1589  165.2839 C.ar    1  UNL1        0.2058
      5 N         142.5874  140.2639  166.0711 N.ar    1  UNL1       -0.1297
      6 C         143.3668  139.1063  163.7912 C.ar    1  UNL1        0.0395
      7 C         142.6318  138.0611  163.0056 C.ar    1  UNL1        0.0063
      8 C         142.7715  138.0086  161.5130 C.ar    1  UNL1        0.0376
      9 C         143.6462  139.0011  160.8062 C.ar    1  UNL1        0.1453
     10 C         144.3813  140.0463  161.5919 C.ar    1  UNL1        0.0376
     11 C         144.2415  140.0989  163.0844 C.ar    1  UNL1        0.0063
     12 O         143.7860  138.9485  159.3136 O.3     1  UNL1       -0.4535
     13 C         142.6350  138.4896  158.4683 C.ar    1  UNL1        0.1454
     14 C         141.3490  139.2618  158.4691 C.ar    1  UNL1        0.0384
     15 C         140.1980  138.8028  157.6237 C.ar    1  UNL1        0.0145
     16 C         140.3330  137.5716  156.7777 C.ar    1  UNL1        0.0579
     17 CL        139.1820  137.1126  155.9324 Cl      1  UNL1       -0.0822
     18 C         141.6189  136.7993  156.7769 C.ar    1  UNL1        0.0145
     19 C         142.7699  137.2583  157.6222 C.ar    1  UNL1        0.0384
     20 C         142.1494  140.7266  168.6671 C.3     1  UNL1        0.1670
     21 N         140.9837  142.5372  167.2136 N.3     1  UNL1       -0.3202
     22 C         141.0167  141.6851  168.4476 C.3     1  UNL1        0.0831
     23 H         140.1499  143.1245  167.2282 H       1  UNL1        0.1189
     24 H         140.9637  141.9389  166.3877 H       1  UNL1        0.1189
     25 C         139.9170  141.7915  169.4622 C.3     1  UNL1        0.0593
     26 C         140.0781  142.6916  170.6513 C.2     1  UNL1        0.0517
     27 O         139.7625  144.1533  170.5336 O.co2   1  UNL1       -0.5491
     28 O         140.5548  142.1301  171.9579 O.co2   1  UNL1       -0.5491
@<TRIPOS>UNITY_ATOM_ATTR
27 1
charge -1
@<TRIPOS>BOND
     1    22    21    1
     2    22    25    1
     3    25    26    1
     4    26    27   ar
     5    26    28   ar
     6    22    20    1
     7    20     1    1
     8     1     2   ar
     9     2     3   ar
    10     3     4   ar
    11     4     6    1
    12     6     7   ar
    13     7     8   ar
    14     8     9   ar
    15     9    12    1
    16    12    13    1
    17    13    14   ar
    18    14    15   ar
    19    15    16   ar
    20    16    17    1
    21    16    18   ar
    22    18    19   ar
    23     9    10   ar
    24    10    11   ar
    25     4     5   ar
    26     5     1   ar
    27    11     6   ar
    28    19    13   ar
    29    21    23    1
    30    21    24    1
