@<TRIPOS>MOLECULE
*****
 29 32 0 0 0
SMALL
GASTEIGER

@<TRIPOS>ATOM
      1 C         139.1337  141.1129  164.4435 C.2     1  UNL1        0.1157
      2 N         139.0697  140.6506  165.8691 N.2     1  UNL1       -0.1790
      3 N         140.2960  141.1500  166.5738 N.pl3   1  UNL1       -0.2060
      4 C         140.7704  141.0024  167.9892 C.ar    1  UNL1        0.1052
      5 C         139.9484  140.2315  168.9791 C.ar    1  UNL1        0.0490
      6 C         140.4228  140.0839  170.3944 C.ar    1  UNL1        0.1416
      7 F         139.6008  139.3130  171.3844 F       1  UNL1       -0.2041
      8 C         141.7191  140.7072  170.8198 C.ar    1  UNL1        0.0328
      9 C         142.5411  141.4781  169.8298 C.ar    1  UNL1        0.0405
     10 C         142.0667  141.6257  168.4146 C.ar    1  UNL1        0.1537
     11 O         142.8887  142.3966  167.4245 O.3     1  UNL1       -0.4723
     12 C         142.4143  142.5442  166.0092 C.3     1  UNL1        0.2277
     13 C         141.1180  141.9209  165.5839 C.3     1  UNL1        0.1488
     14 C         140.3997  141.8980  164.2673 C.3     1  UNL1        0.0806
     15 C         141.5664  142.7139  163.7951 C.ar    1  UNL1       -0.0157
     16 C         142.6814  142.0586  163.0354 C.ar    1  UNL1       -0.0039
     17 C         143.8483  142.8745  162.5632 C.ar    1  UNL1       -0.0003
     18 C         143.8999  144.3458  162.8507 C.ar    1  UNL1       -0.0000
     19 C         142.7849  145.0012  163.6104 C.ar    1  UNL1       -0.0003
     20 C         141.6181  144.1852  164.0826 C.ar    1  UNL1       -0.0039
     21 C         138.2550  139.6367  162.4944 C.3     1  UNL1        0.0786
     22 C         138.1113  140.8383  163.3808 C.2     1  UNL1        0.1887
     23 O         136.9453  141.7652  163.2044 O.2     1  UNL1       -0.2900
     24 C         139.9253  142.0456  162.8519 C.3     1  UNL1        0.0130
     25 C         139.4641  143.3822  162.3510 C.3     1  UNL1        0.0181
     26 C         139.6171  143.7331  160.9007 C.3     1  UNL1        0.0722
     27 N         139.9000  145.1501  160.4977 N.3     1  UNL1       -0.2703
     28 C         139.7665  146.2563  161.5018 C.3     1  UNL1        0.0897
     29 C         140.3164  145.4607  159.0905 C.3     1  UNL1        0.0897
@<TRIPOS>BOND
     1    21    22    1
     2    22    23    2
     3    22     1    1
     4     1     2    2
     5     2     3    1
     6     3     4    1
     7     4     5   ar
     8     5     6   ar
     9     6     7    1
    10     6     8   ar
    11     8     9   ar
    12     9    10   ar
    13    10    11    1
    14    11    12    1
    15    13    12    1
    16    13    14    1
    17    14    24    1
    18    24    25    1
    19    25    26    1
    20    26    27    1
    21    27    28    1
    22    27    29    1
    23    14    15    1
    24    15    16   ar
    25    16    17   ar
    26    17    18   ar
    27    18    19   ar
    28    19    20   ar
    29    14     1    1
    30    20    15   ar
    31    13     3    1
    32    10     4   ar
@<TRIPOS>MOLECULE
*****
 29 32 0 0 0
SMALL
GASTEIGER

@<TRIPOS>ATOM
      1 C         140.7945  138.7551  164.0636 C.2     1  UNL1        0.1157
      2 N         140.0731  138.8956  165.3712 N.2     1  UNL1       -0.1790
      3 N         140.7437  139.9840  166.1558 N.pl3   1  UNL1       -0.2060
      4 C         140.4667  140.5593  167.5132 C.ar    1  UNL1        0.1052
      5 C         139.3309  140.0271  168.3358 C.ar    1  UNL1        0.0490
      6 C         139.0540  140.6024  169.6931 C.ar    1  UNL1        0.1416
      7 F         137.9182  140.0702  170.5158 F       1  UNL1       -0.2041
      8 C         139.9129  141.7099  170.2278 C.ar    1  UNL1        0.0328
      9 C         141.0486  142.2421  169.4051 C.ar    1  UNL1        0.0405
     10 C         141.3255  141.6668  168.0478 C.ar    1  UNL1        0.1537
     11 O         142.4614  142.1990  167.2251 O.3     1  UNL1       -0.4723
     12 C         142.7383  141.6237  165.8678 C.3     1  UNL1        0.2277
     13 C         141.8794  140.5162  165.3332 C.3     1  UNL1        0.1488
     14 C         141.9109  139.7567  164.0401 C.3     1  UNL1        0.0806
     15 C         143.0851  140.6380  163.7328 C.ar    1  UNL1       -0.0157
     16 C         142.9096  141.8427  162.8565 C.ar    1  UNL1       -0.0039
     17 C         144.0839  142.7241  162.5492 C.ar    1  UNL1       -0.0003
     18 C         145.4336  142.4007  163.1182 C.ar    1  UNL1       -0.0000
     19 C         145.6091  141.1961  163.9945 C.ar    1  UNL1       -0.0003
     20 C         144.4348  140.3147  164.3018 C.ar    1  UNL1       -0.0039
     21 C         139.5120  138.1820  161.8779 C.3     1  UNL1        0.0786
     22 C         140.4585  137.7835  162.9712 C.2     1  UNL1        0.1887
     23 O         141.0691  136.4134  162.9722 O.2     1  UNL1       -0.2900
     24 C         142.1878  139.1814  162.6827 C.3     1  UNL1        0.0130
     25 C         143.5190  138.5546  162.3911 C.3     1  UNL1        0.0181
     26 C         143.7478  137.8533  161.0851 C.3     1  UNL1        0.0722
     27 N         143.4434  138.5539  159.7941 N.3     1  UNL1       -0.2703
     28 C         143.8765  139.9757  159.5921 C.3     1  UNL1        0.0897
     29 C         142.7058  137.8326  158.7052 C.3     1  UNL1        0.0897
@<TRIPOS>BOND
     1    21    22    1
     2    22    23    2
     3    22     1    1
     4     1     2    2
     5     2     3    1
     6     3     4    1
     7     4     5   ar
     8     5     6   ar
     9     6     7    1
    10     6     8   ar
    11     8     9   ar
    12     9    10   ar
    13    10    11    1
    14    11    12    1
    15    13    12    1
    16    13    14    1
    17    14    24    1
    18    24    25    1
    19    25    26    1
    20    26    27    1
    21    27    28    1
    22    27    29    1
    23    14    15    1
    24    15    16   ar
    25    16    17   ar
    26    17    18   ar
    27    18    19   ar
    28    19    20   ar
    29    14     1    1
    30    20    15   ar
    31    13     3    1
    32    10     4   ar
@<TRIPOS>MOLECULE
*****
 29 32 0 0 0
SMALL
GASTEIGER

@<TRIPOS>ATOM
      1 C         143.8228  141.7610  164.2878 C.2     1  UNL1        0.1157
      2 N         143.8723  142.2663  165.6993 N.2     1  UNL1       -0.1790
      3 N         142.8266  141.5370  166.4896 N.pl3   1  UNL1       -0.2060
      4 C         142.4181  141.6199  167.9305 C.ar    1  UNL1        0.1052
      5 C         143.1139  142.5758  168.8535 C.ar    1  UNL1        0.0490
      6 C         142.7054  142.6587  170.2944 C.ar    1  UNL1        0.1416
      7 F         143.4012  143.6147  171.2175 F       1  UNL1       -0.2041
      8 C         141.6011  141.7856  170.8123 C.ar    1  UNL1        0.0328
      9 C         140.9053  140.8296  169.8893 C.ar    1  UNL1        0.0405
     10 C         141.3138  140.7468  168.4484 C.ar    1  UNL1        0.1537
     11 O         140.6180  139.7907  167.5254 O.3     1  UNL1       -0.4723
     12 C         141.0266  139.7079  166.0845 C.3     1  UNL1        0.2277
     13 C         142.1308  140.5810  165.5666 C.3     1  UNL1        0.1488
     14 C         142.7465  140.7195  164.2058 C.3     1  UNL1        0.0806
     15 C         141.7557  139.6606  163.8225 C.ar    1  UNL1       -0.0157
     16 C         142.0513  138.2181  164.1085 C.ar    1  UNL1       -0.0039
     17 C         141.0604  137.1591  163.7252 C.ar    1  UNL1       -0.0003
     18 C         139.7739  137.5427  163.0560 C.ar    1  UNL1       -0.0000
     19 C         139.4783  138.9852  162.7701 C.ar    1  UNL1       -0.0003
     20 C         140.4691  140.0442  163.1533 C.ar    1  UNL1       -0.0039
     21 C         144.1912  143.2428  162.1857 C.3     1  UNL1        0.0786
     22 C         144.6963  142.2173  163.1569 C.2     1  UNL1        0.1887
     23 O         146.0748  141.6480  162.9971 O.2     1  UNL1       -0.2900
     24 C         143.1550  140.6366  162.7648 C.3     1  UNL1        0.0130
     25 C         143.7580  139.3725  162.2278 C.3     1  UNL1        0.0181
     26 C         144.1610  139.2876  160.7854 C.3     1  UNL1        0.0722
     27 N         143.1152  139.1212  159.7230 N.3     1  UNL1       -0.2703
     28 C         141.8743  138.3287  160.0097 C.3     1  UNL1        0.0897
     29 C         143.3103  139.7472  158.3739 C.3     1  UNL1        0.0897
@<TRIPOS>BOND
     1    21    22    1
     2    22    23    2
     3    22     1    1
     4     1     2    2
     5     2     3    1
     6     3     4    1
     7     4     5   ar
     8     5     6   ar
     9     6     7    1
    10     6     8   ar
    11     8     9   ar
    12     9    10   ar
    13    10    11    1
    14    11    12    1
    15    13    12    1
    16    13    14    1
    17    14    24    1
    18    24    25    1
    19    25    26    1
    20    26    27    1
    21    27    28    1
    22    27    29    1
    23    14    15    1
    24    15    16   ar
    25    16    17   ar
    26    17    18   ar
    27    18    19   ar
    28    19    20   ar
    29    14     1    1
    30    20    15   ar
    31    13     3    1
    32    10     4   ar
@<TRIPOS>MOLECULE
*****
 29 32 0 0 0
SMALL
GASTEIGER

@<TRIPOS>ATOM
      1 C         139.2413  141.7556  164.5127 C.2     1  UNL1        0.1157
      2 N         139.1807  141.2189  165.9121 N.2     1  UNL1       -0.1790
      3 N         140.5102  141.4659  166.5612 N.pl3   1  UNL1       -0.2060
      4 C         141.0314  141.1520  167.9323 C.ar    1  UNL1        0.1052
      5 C         140.1491  140.4626  168.9304 C.ar    1  UNL1        0.0490
      6 C         140.6704  140.1488  170.3015 C.ar    1  UNL1        0.1416
      7 F         139.7881  139.4594  171.2997 F       1  UNL1       -0.2041
      8 C         142.0739  140.5244  170.6744 C.ar    1  UNL1        0.0328
      9 C         142.9562  141.2138  169.6763 C.ar    1  UNL1        0.0405
     10 C         142.4349  141.5276  168.3053 C.ar    1  UNL1        0.1537
     11 O         143.3172  142.2171  167.3071 O.3     1  UNL1       -0.4723
     12 C         142.7960  142.5309  165.9360 C.3     1  UNL1        0.2277
     13 C         141.3925  142.1553  165.5631 C.3     1  UNL1        0.1488
     14 C         140.6082  142.3344  164.2971 C.3     1  UNL1        0.0806
     15 C         141.8662  142.9787  163.7947 C.ar    1  UNL1       -0.0157
     16 C         141.9953  144.4731  163.7954 C.ar    1  UNL1       -0.0039
     17 C         143.2533  145.1175  163.2931 C.ar    1  UNL1       -0.0003
     18 C         144.3822  144.2675  162.7901 C.ar    1  UNL1       -0.0000
     19 C         144.2531  142.7731  162.7894 C.ar    1  UNL1       -0.0003
     20 C         142.9951  142.1286  163.2917 C.ar    1  UNL1       -0.0039
     21 C         137.7079  140.4140  162.9006 C.3     1  UNL1        0.0786
     22 C         138.1300  141.7199  163.5058 C.2     1  UNL1        0.1887
     23 O         137.4408  142.9903  163.1041 O.2     1  UNL1       -0.2900
     24 C         140.0870  142.6482  162.9259 C.3     1  UNL1        0.0130
     25 C         140.6319  141.9219  161.7320 C.3     1  UNL1        0.0181
     26 C         140.5609  142.5533  160.3733 C.3     1  UNL1        0.0722
     27 N         141.5047  143.6615  160.0110 N.3     1  UNL1       -0.2703
     28 C         142.8595  143.3405  159.4528 C.3     1  UNL1        0.0897
     29 C         141.0937  145.0907  160.2069 C.3     1  UNL1        0.0897
@<TRIPOS>BOND
     1    21    22    1
     2    22    23    2
     3    22     1    1
     4     1     2    2
     5     2     3    1
     6     3     4    1
     7     4     5   ar
     8     5     6   ar
     9     6     7    1
    10     6     8   ar
    11     8     9   ar
    12     9    10   ar
    13    10    11    1
    14    11    12    1
    15    13    12    1
    16    13    14    1
    17    14    24    1
    18    24    25    1
    19    25    26    1
    20    26    27    1
    21    27    28    1
    22    27    29    1
    23    14    15    1
    24    15    16   ar
    25    16    17   ar
    26    17    18   ar
    27    18    19   ar
    28    19    20   ar
    29    14     1    1
    30    20    15   ar
    31    13     3    1
    32    10     4   ar
@<TRIPOS>MOLECULE
*****
 29 32 0 0 0
SMALL
GASTEIGER

@<TRIPOS>ATOM
      1 C         143.5471  140.9298  163.7616 C.2     1  UNL1        0.1157
      2 N         143.5638  140.2212  165.0836 N.2     1  UNL1       -0.1790
      3 N         142.4600  140.7872  165.9269 N.pl3   1  UNL1       -0.2060
      4 C         142.0009  140.4755  167.3205 C.ar    1  UNL1        0.1052
      5 C         142.6998  139.4171  168.1212 C.ar    1  UNL1        0.0490
      6 C         142.2408  139.1054  169.5148 C.ar    1  UNL1        0.1416
      7 F         142.9396  138.0469  170.3156 F       1  UNL1       -0.2041
      8 C         141.0829  139.8523  170.1077 C.ar    1  UNL1        0.0328
      9 C         140.3840  140.9107  169.3070 C.ar    1  UNL1        0.0405
     10 C         140.8430  141.2224  167.9134 C.ar    1  UNL1        0.1537
     11 O         140.1442  142.2809  167.1126 O.3     1  UNL1       -0.4723
     12 C         140.6032  142.5926  165.7190 C.3     1  UNL1        0.2277
     13 C         141.7611  141.8457  165.1262 C.3     1  UNL1        0.1488
     14 C         142.4330  141.9338  163.7880 C.3     1  UNL1        0.0806
     15 C         141.4149  143.0030  163.5229 C.ar    1  UNL1       -0.0157
     16 C         140.0078  142.6265  163.1646 C.ar    1  UNL1       -0.0039
     17 C         138.9896  143.6957  162.8995 C.ar    1  UNL1       -0.0003
     18 C         139.3785  145.1414  162.9928 C.ar    1  UNL1       -0.0000
     19 C         140.7856  145.5179  163.3511 C.ar    1  UNL1       -0.0003
     20 C         141.8038  144.4487  163.6162 C.ar    1  UNL1       -0.0039
     21 C         144.2753  139.4864  161.7278 C.3     1  UNL1        0.0786
     22 C         144.4807  140.6786  162.6147 C.2     1  UNL1        0.1887
     23 O         145.6196  141.6195  162.3548 O.2     1  UNL1       -0.2900
     24 C         142.8920  142.2455  162.3943 C.3     1  UNL1        0.0130
     25 C         141.9882  141.9736  161.2285 C.3     1  UNL1        0.0181
     26 C         142.0718  142.8290  159.9992 C.3     1  UNL1        0.0722
     27 N         140.9440  143.7549  159.6516 N.3     1  UNL1       -0.2703
     28 C         139.6056  143.1961  159.2690 C.3     1  UNL1        0.0897
     29 C         141.1546  145.2397  159.6866 C.3     1  UNL1        0.0897
@<TRIPOS>BOND
     1    21    22    1
     2    22    23    2
     3    22     1    1
     4     1     2    2
     5     2     3    1
     6     3     4    1
     7     4     5   ar
     8     5     6   ar
     9     6     7    1
    10     6     8   ar
    11     8     9   ar
    12     9    10   ar
    13    10    11    1
    14    11    12    1
    15    13    12    1
    16    13    14    1
    17    14    24    1
    18    24    25    1
    19    25    26    1
    20    26    27    1
    21    27    28    1
    22    27    29    1
    23    14    15    1
    24    15    16   ar
    25    16    17   ar
    26    17    18   ar
    27    18    19   ar
    28    19    20   ar
    29    14     1    1
    30    20    15   ar
    31    13     3    1
    32    10     4   ar
@<TRIPOS>MOLECULE
*****
 29 32 0 0 0
SMALL
GASTEIGER

@<TRIPOS>ATOM
      1 C         139.1554  142.4033  164.0668 C.2     1  UNL1        0.1157
      2 N         138.9882  141.8662  165.4573 N.2     1  UNL1       -0.1790
      3 N         140.3479  141.5176  165.9861 N.pl3   1  UNL1       -0.2060
      4 C         140.7987  140.9487  167.2989 C.ar    1  UNL1        0.1052
      5 C         139.7912  140.6270  168.3625 C.ar    1  UNL1        0.0490
      6 C         140.2420  140.0582  169.6752 C.ar    1  UNL1        0.1416
      7 F         139.2345  139.7365  170.7389 F       1  UNL1       -0.2041
      8 C         141.7004  139.8111  169.9242 C.ar    1  UNL1        0.0328
      9 C         142.7080  140.1327  168.8605 C.ar    1  UNL1        0.0405
     10 C         142.2571  140.7016  167.5479 C.ar    1  UNL1        0.1537
     11 O         143.2647  141.0233  166.4842 O.3     1  UNL1       -0.4723
     12 C         142.8138  141.5921  165.1715 C.3     1  UNL1        0.2277
     13 C         141.3554  141.8392  164.9225 C.3     1  UNL1        0.1488
     14 C         140.6184  142.3867  163.7363 C.3     1  UNL1        0.0806
     15 C         141.9871  142.4889  163.1313 C.ar    1  UNL1       -0.0157
     16 C         142.6453  141.2705  162.5549 C.ar    1  UNL1       -0.0039
     17 C         144.0141  141.3727  161.9498 C.ar    1  UNL1       -0.0003
     18 C         144.7247  142.6934  161.9212 C.ar    1  UNL1       -0.0000
     19 C         144.0666  143.9118  162.4977 C.ar    1  UNL1       -0.0003
     20 C         142.6978  143.8096  163.1027 C.ar    1  UNL1       -0.0039
     21 C         137.7304  144.3366  163.0758 C.3     1  UNL1        0.0786
     22 C         138.0530  142.8744  163.1651 C.2     1  UNL1        0.1887
     23 O         137.2733  141.8833  162.3529 O.2     1  UNL1       -0.2900
     24 C         140.1676  142.9555  162.4235 C.3     1  UNL1        0.0130
     25 C         140.3515  142.1663  161.1613 C.3     1  UNL1        0.0181
     26 C         140.3223  142.8603  159.8319 C.3     1  UNL1        0.0722
     27 N         141.3865  143.8584  159.4833 N.3     1  UNL1       -0.2703
     28 C         142.7067  143.3905  158.9466 C.3     1  UNL1        0.0897
     29 C         141.1304  145.3243  159.6714 C.3     1  UNL1        0.0897
@<TRIPOS>BOND
     1    21    22    1
     2    22    23    2
     3    22     1    1
     4     1     2    2
     5     2     3    1
     6     3     4    1
     7     4     5   ar
     8     5     6   ar
     9     6     7    1
    10     6     8   ar
    11     8     9   ar
    12     9    10   ar
    13    10    11    1
    14    11    12    1
    15    13    12    1
    16    13    14    1
    17    14    24    1
    18    24    25    1
    19    25    26    1
    20    26    27    1
    21    27    28    1
    22    27    29    1
    23    14    15    1
    24    15    16   ar
    25    16    17   ar
    26    17    18   ar
    27    18    19   ar
    28    19    20   ar
    29    14     1    1
    30    20    15   ar
    31    13     3    1
    32    10     4   ar
@<TRIPOS>MOLECULE
*****
 29 32 0 0 0
SMALL
GASTEIGER

@<TRIPOS>ATOM
      1 C         143.6922  141.8347  164.2519 C.2     1  UNL1        0.1157
      2 N         143.7730  142.3179  165.6697 N.2     1  UNL1       -0.1790
      3 N         142.7566  141.5640  166.4749 N.pl3   1  UNL1       -0.2060
      4 C         142.3851  141.6191  167.9271 C.ar    1  UNL1        0.1052
      5 C         143.0941  142.5681  168.8472 C.ar    1  UNL1        0.0490
      6 C         142.7226  142.6232  170.2994 C.ar    1  UNL1        0.1416
      7 F         143.4317  143.5723  171.2195 F       1  UNL1       -0.2041
      8 C         141.6420  141.7292  170.8315 C.ar    1  UNL1        0.0328
      9 C         140.9329  140.7802  169.9115 C.ar    1  UNL1        0.0405
     10 C         141.3045  140.7251  168.4593 C.ar    1  UNL1        0.1537
     11 O         140.5954  139.7761  167.5391 O.3     1  UNL1       -0.4723
     12 C         140.9669  139.7210  166.0870 C.3     1  UNL1        0.2277
     13 C         142.0475  140.6149  165.5548 C.3     1  UNL1        0.1488
     14 C         142.6257  140.7823  164.1809 C.3     1  UNL1        0.0806
     15 C         141.6370  139.7183  163.8063 C.ar    1  UNL1       -0.0157
     16 C         140.2057  140.0831  163.5452 C.ar    1  UNL1       -0.0039
     17 C         139.2168  139.0191  163.1706 C.ar    1  UNL1       -0.0003
     18 C         139.6594  137.5903  163.0572 C.ar    1  UNL1       -0.0000
     19 C         141.0907  137.2256  163.3183 C.ar    1  UNL1       -0.0003
     20 C         142.0796  138.2896  163.6929 C.ar    1  UNL1       -0.0039
     21 C         144.3465  143.7108  162.5778 C.3     1  UNL1        0.0786
     22 C         144.5306  142.3191  163.1062 C.2     1  UNL1        0.1887
     23 O         145.5531  141.4117  162.4889 O.2     1  UNL1       -0.2900
     24 C         142.9973  140.7272  162.7286 C.3     1  UNL1        0.0130
     25 C         142.0100  141.1586  161.6850 C.3     1  UNL1        0.0181
     26 C         142.3909  141.1289  160.2345 C.3     1  UNL1        0.0722
     27 N         142.9941  142.3430  159.5924 N.3     1  UNL1       -0.2703
     28 C         144.3991  142.2950  159.0694 C.3     1  UNL1        0.0897
     29 C         142.1921  143.6050  159.4733 C.3     1  UNL1        0.0897
@<TRIPOS>BOND
     1    21    22    1
     2    22    23    2
     3    22     1    1
     4     1     2    2
     5     2     3    1
     6     3     4    1
     7     4     5   ar
     8     5     6   ar
     9     6     7    1
    10     6     8   ar
    11     8     9   ar
    12     9    10   ar
    13    10    11    1
    14    11    12    1
    15    13    12    1
    16    13    14    1
    17    14    24    1
    18    24    25    1
    19    25    26    1
    20    26    27    1
    21    27    28    1
    22    27    29    1
    23    14    15    1
    24    15    16   ar
    25    16    17   ar
    26    17    18   ar
    27    18    19   ar
    28    19    20   ar
    29    14     1    1
    30    20    15   ar
    31    13     3    1
    32    10     4   ar
@<TRIPOS>MOLECULE
*****
 29 32 0 0 0
SMALL
GASTEIGER

@<TRIPOS>ATOM
      1 C         140.4305  143.5011  163.2195 C.2     1  UNL1        0.1157
      2 N         140.5375  143.6763  164.7054 N.2     1  UNL1       -0.1790
      3 N         140.2018  142.3652  165.3521 N.pl3   1  UNL1       -0.2060
      4 C         140.1419  141.9414  166.7898 C.ar    1  UNL1        0.1052
      5 C         140.4564  142.9269  167.8759 C.ar    1  UNL1        0.0490
      6 C         140.3964  142.5030  169.3135 C.ar    1  UNL1        0.1416
      7 F         140.7109  143.4886  170.3998 F       1  UNL1       -0.2041
      8 C         140.0220  141.0937  169.6649 C.ar    1  UNL1        0.0328
      9 C         139.7075  140.1082  168.5788 C.ar    1  UNL1        0.0405
     10 C         139.7675  140.5320  167.1412 C.ar    1  UNL1        0.1537
     11 O         139.4530  139.5464  166.0549 O.3     1  UNL1       -0.4723
     12 C         139.5129  139.9703  164.6173 C.3     1  UNL1        0.2277
     13 C         139.8873  141.3797  164.2659 C.3     1  UNL1        0.1488
     14 C         140.0286  142.0817  162.9479 C.3     1  UNL1        0.0806
     15 C         139.6394  140.7509  162.3757 C.ar    1  UNL1       -0.0157
     16 C         140.6898  139.8410  161.8112 C.ar    1  UNL1       -0.0039
     17 C         140.3006  138.5102  161.2390 C.ar    1  UNL1       -0.0003
     18 C         138.8608  138.0892  161.2313 C.ar    1  UNL1       -0.0000
     19 C         137.8104  138.9991  161.7958 C.ar    1  UNL1       -0.0003
     20 C         138.1996  140.3300  162.3680 C.ar    1  UNL1       -0.0039
     21 C         139.7293  145.7101  162.0452 C.3     1  UNL1        0.0786
     22 C         140.6812  144.5596  162.1866 C.2     1  UNL1        0.1887
     23 O         141.8840  144.4674  161.2951 O.2     1  UNL1       -0.2900
     24 C         140.0886  142.5055  161.5102 C.3     1  UNL1        0.0130
     25 C         138.8314  142.5712  160.6947 C.3     1  UNL1        0.0181
     26 C         138.9040  142.8781  159.2282 C.3     1  UNL1        0.0722
     27 N         138.1995  141.9950  158.2413 N.3     1  UNL1       -0.2703
     28 C         138.1783  140.5093  158.4460 C.3     1  UNL1        0.0897
     29 C         137.5162  142.5978  157.0498 C.3     1  UNL1        0.0897
@<TRIPOS>BOND
     1    21    22    1
     2    22    23    2
     3    22     1    1
     4     1     2    2
     5     2     3    1
     6     3     4    1
     7     4     5   ar
     8     5     6   ar
     9     6     7    1
    10     6     8   ar
    11     8     9   ar
    12     9    10   ar
    13    10    11    1
    14    11    12    1
    15    13    12    1
    16    13    14    1
    17    14    24    1
    18    24    25    1
    19    25    26    1
    20    26    27    1
    21    27    28    1
    22    27    29    1
    23    14    15    1
    24    15    16   ar
    25    16    17   ar
    26    17    18   ar
    27    18    19   ar
    28    19    20   ar
    29    14     1    1
    30    20    15   ar
    31    13     3    1
    32    10     4   ar
@<TRIPOS>MOLECULE
*****
 29 32 0 0 0
SMALL
GASTEIGER

@<TRIPOS>ATOM
      1 C         143.1470  142.2936  161.9742 C.2     1  UNL1        0.1157
      2 N         143.2940  142.8156  160.5756 N.2     1  UNL1       -0.1790
      3 N         142.0988  143.6695  160.2717 N.pl3   1  UNL1       -0.2060
      4 C         141.7026  144.4426  159.0489 C.ar    1  UNL1        0.1052
      5 C         142.5881  144.4368  157.8382 C.ar    1  UNL1        0.0490
      6 C         142.1918  145.2099  156.6154 C.ar    1  UNL1        0.1416
      7 F         143.0774  145.2041  155.4047 F       1  UNL1       -0.2041
      8 C         140.9099  145.9888  156.6033 C.ar    1  UNL1        0.0328
      9 C         140.0244  145.9946  157.8140 C.ar    1  UNL1        0.0405
     10 C         140.4207  145.2215  159.0367 C.ar    1  UNL1        0.1537
     11 O         139.5351  145.2273  160.2475 O.3     1  UNL1       -0.4723
     12 C         139.9314  144.4542  161.4702 C.3     1  UNL1        0.2277
     13 C         141.2133  143.6753  161.4824 C.3     1  UNL1        0.1488
     14 C         141.8611  142.8249  162.5346 C.3     1  UNL1        0.0806
     15 C         140.6580  143.1947  163.3506 C.ar    1  UNL1       -0.0157
     16 C         139.5116  142.2352  163.4737 C.ar    1  UNL1       -0.0039
     17 C         138.3085  142.6049  164.2898 C.ar    1  UNL1       -0.0003
     18 C         138.2518  143.9341  164.9827 C.ar    1  UNL1       -0.0000
     19 C         139.3982  144.8935  164.8596 C.ar    1  UNL1       -0.0003
     20 C         140.6014  144.5238  164.0435 C.ar    1  UNL1       -0.0039
     21 C         145.4537  141.9265  163.1120 C.3     1  UNL1        0.0786
     22 C         144.1160  141.3975  162.6872 C.2     1  UNL1        0.1887
     23 O         143.7471  139.9724  162.9754 O.2     1  UNL1       -0.2900
     24 C         142.2574  142.0518  163.7574 C.3     1  UNL1        0.0130
     25 C         142.6293  142.7781  165.0161 C.3     1  UNL1        0.0181
     26 C         143.0222  142.0049  166.2399 C.3     1  UNL1        0.0722
     27 N         142.3093  142.2427  167.5382 N.3     1  UNL1       -0.2703
     28 C         140.8447  142.5662  167.5413 C.3     1  UNL1        0.0897
     29 C         143.0612  142.1569  168.8333 C.3     1  UNL1        0.0897
@<TRIPOS>BOND
     1    21    22    1
     2    22    23    2
     3    22     1    1
     4     1     2    2
     5     2     3    1
     6     3     4    1
     7     4     5   ar
     8     5     6   ar
     9     6     7    1
    10     6     8   ar
    11     8     9   ar
    12     9    10   ar
    13    10    11    1
    14    11    12    1
    15    13    12    1
    16    13    14    1
    17    14    24    1
    18    24    25    1
    19    25    26    1
    20    26    27    1
    21    27    28    1
    22    27    29    1
    23    14    15    1
    24    15    16   ar
    25    16    17   ar
    26    17    18   ar
    27    18    19   ar
    28    19    20   ar
    29    14     1    1
    30    20    15   ar
    31    13     3    1
    32    10     4   ar
