@<TRIPOS>MOLECULE
*****
 34 38 0 0 0
SMALL
GASTEIGER

@<TRIPOS>ATOM
      1 C         139.5306  139.8380  165.6137 C.3     1  UNL1        0.2321
      2 N         138.5126  138.7475  165.7700 N.2     1  UNL1       -0.0614
      3 C         138.0614  138.7361  167.2004 C.2     1  UNL1        0.3157
      4 N         137.0489  137.8047  167.7982 N.pl3   1  UNL1       -0.2464
      5 C         138.8006  139.8195  167.9283 C.ar    1  UNL1        0.1094
      6 C         138.7642  140.2739  169.3573 C.ar    1  UNL1        0.1470
      7 F         137.8562  139.5929  170.3380 F       1  UNL1       -0.2039
      8 C         139.6358  141.4093  169.8057 C.ar    1  UNL1        0.0299
      9 C         140.5439  142.0903  168.8250 C.ar    1  UNL1        0.0021
     10 C         140.5803  141.6359  167.3960 C.ar    1  UNL1        0.0008
     11 C         139.7087  140.5005  166.9477 C.ar    1  UNL1        0.0390
     12 H         136.6154  137.1225  167.2361 H       1  UNL1        0.2884
     13 H         136.8178  137.8757  168.7525 H       1  UNL1        0.2884
     14 C         142.0592  137.5917  161.6690 C.3     1  UNL1        0.0360
     15 C         140.8313  138.2604  162.2123 C.ar    1  UNL1        0.0342
     16 C         140.7949  138.7148  163.6413 C.ar    1  UNL1        0.0023
     17 C         139.5670  139.3835  164.1846 C.ar    1  UNL1        0.0468
     18 C         138.3756  139.5978  163.2990 C.ar    1  UNL1        0.0787
     19 N         138.4120  139.1433  161.8699 N.ar    1  UNL1       -0.2926
     20 C         137.2205  139.3575  160.9842 C.3     1  UNL1        0.1336
     21 C         139.6399  138.4746  161.3266 C.ar    1  UNL1        0.2569
     22 O         139.6763  138.0202  159.8975 O.2     1  UNL1       -0.2673
     23 C         140.5563  140.8335  165.1587 C.ar    1  UNL1        0.0297
     24 C         141.9591  140.7586  165.6846 C.ar    1  UNL1        0.0004
     25 C         142.9848  141.7542  165.2296 C.ar    1  UNL1       -0.0002
     26 C         142.6076  142.8245  164.2487 C.ar    1  UNL1        0.0001
     27 C         141.2048  142.8993  163.7228 C.ar    1  UNL1        0.0028
     28 C         140.1791  141.9039  164.1778 C.ar    1  UNL1        0.0005
     29 C         140.8276  143.9697  162.7419 C.ar    1  UNL1        0.0384
     30 C         139.5405  144.7213  162.9102 C.ar    1  UNL1        0.1022
     31 N         139.1632  145.7917  161.9294 N.ar    1  UNL1       -0.2224
     32 C         140.0731  146.1103  160.7802 C.ar    1  UNL1        0.1989
     33 N         141.3603  145.3586  160.6120 N.ar    1  UNL1       -0.2224
     34 C         141.7375  144.2883  161.5928 C.ar    1  UNL1        0.1022
@<TRIPOS>BOND
     1    14    15    1
     2    15    16   ar
     3    16    17   ar
     4    17     1    1
     5     1    23    1
     6    23    24   ar
     7    24    25   ar
     8    25    26   ar
     9    26    27   ar
    10    27    29    1
    11    29    30   ar
    12    30    31   ar
    13    31    32   ar
    14    32    33   ar
    15    33    34   ar
    16    27    28   ar
    17     1     2    1
    18     2     3    2
    19     3     4    1
    20     3     5    1
    21     5     6   ar
    22     6     7    1
    23     6     8   ar
    24     8     9   ar
    25     9    10   ar
    26    10    11   ar
    27    17    18   ar
    28    18    19   ar
    29    19    20    1
    30    19    21   ar
    31    21    22    2
    32    21    15   ar
    33    11     1    1
    34    28    23   ar
    35    11     5   ar
    36    34    29   ar
    37     4    12    1
    38     4    13    1
@<TRIPOS>MOLECULE
*****
 34 38 0 0 0
SMALL
GASTEIGER

@<TRIPOS>ATOM
      1 C         141.6360  139.2521  165.3448 C.3     1  UNL1        0.2321
      2 N         142.8376  138.3545  165.3621 N.2     1  UNL1       -0.0614
      3 C         143.3167  138.2485  166.7796 C.2     1  UNL1        0.3157
      4 N         144.4945  137.4506  167.2549 N.pl3   1  UNL1       -0.2464
      5 C         142.4111  139.0807  167.6384 C.ar    1  UNL1        0.1094
      6 C         142.3982  139.3537  169.1132 C.ar    1  UNL1        0.1470
      7 F         143.4369  138.7335  170.0000 F       1  UNL1       -0.2039
      8 C         141.3465  140.2470  169.7013 C.ar    1  UNL1        0.0299
      9 C         140.3077  140.8673  168.8146 C.ar    1  UNL1        0.0021
     10 C         140.3207  140.5942  167.3397 C.ar    1  UNL1        0.0008
     11 C         141.3724  139.7009  166.7516 C.ar    1  UNL1        0.0390
     12 H         145.0309  136.9336  166.6112 H       1  UNL1        0.2884
     13 H         144.7312  137.4438  168.2105 H       1  UNL1        0.2884
     14 C         139.1172  137.9805  160.9815 C.3     1  UNL1        0.0360
     15 C         140.3895  138.3432  161.6883 C.ar    1  UNL1        0.0342
     16 C         140.3766  138.6163  163.1631 C.ar    1  UNL1        0.0023
     17 C         141.6490  138.9790  163.8699 C.ar    1  UNL1        0.0468
     18 C         142.9343  139.0686  163.1018 C.ar    1  UNL1        0.0787
     19 N         142.9472  138.7954  161.6270 N.ar    1  UNL1       -0.2926
     20 C         144.2325  138.8850  160.8589 C.3     1  UNL1        0.1336
     21 C         141.6748  138.4327  160.9202 C.ar    1  UNL1        0.2569
     22 O         141.6878  138.1596  159.4453 O.2     1  UNL1       -0.2673
     23 C         140.4370  140.0926  165.0192 C.ar    1  UNL1        0.0297
     24 C         139.0627  139.6087  165.3756 C.ar    1  UNL1        0.0004
     25 C         137.8637  140.4493  165.0500 C.ar    1  UNL1       -0.0002
     26 C         138.0391  141.7737  164.3679 C.ar    1  UNL1        0.0001
     27 C         139.4135  142.2576  164.0115 C.ar    1  UNL1        0.0028
     28 C         140.6124  141.4171  164.3371 C.ar    1  UNL1        0.0005
     29 C         139.5889  143.5820  163.3295 C.ar    1  UNL1        0.0384
     30 C         140.9527  144.1981  163.2273 C.ar    1  UNL1        0.1022
     31 N         141.1283  145.5225  162.5452 N.ar    1  UNL1       -0.2224
     32 C         139.9399  146.2308  161.9654 C.ar    1  UNL1        0.1989
     33 N         138.5761  145.6146  162.0676 N.ar    1  UNL1       -0.2224
     34 C         138.4006  144.2903  162.7496 C.ar    1  UNL1        0.1022
@<TRIPOS>BOND
     1    14    15    1
     2    15    16   ar
     3    16    17   ar
     4    17     1    1
     5     1    23    1
     6    23    24   ar
     7    24    25   ar
     8    25    26   ar
     9    26    27   ar
    10    27    29    1
    11    29    30   ar
    12    30    31   ar
    13    31    32   ar
    14    32    33   ar
    15    33    34   ar
    16    27    28   ar
    17     1     2    1
    18     2     3    2
    19     3     4    1
    20     3     5    1
    21     5     6   ar
    22     6     7    1
    23     6     8   ar
    24     8     9   ar
    25     9    10   ar
    26    10    11   ar
    27    17    18   ar
    28    18    19   ar
    29    19    20    1
    30    19    21   ar
    31    21    22    2
    32    21    15   ar
    33    11     1    1
    34    28    23   ar
    35    11     5   ar
    36    34    29   ar
    37     4    12    1
    38     4    13    1
@<TRIPOS>MOLECULE
*****
 34 38 0 0 0
SMALL
GASTEIGER

@<TRIPOS>ATOM
      1 C         140.9625  141.8879  162.4926 C.3     1  UNL1        0.2321
      2 N         141.8302  142.6179  161.5107 N.2     1  UNL1       -0.0614
      3 C         141.2759  144.0014  161.3414 C.2     1  UNL1        0.3157
      4 N         141.8339  145.0720  160.4512 N.pl3   1  UNL1       -0.2464
      5 C         140.0656  144.1265  162.2187 C.ar    1  UNL1        0.1094
      6 C         139.1149  145.2610  162.4615 C.ar    1  UNL1        0.1470
      7 F         139.3087  146.5672  161.7501 F       1  UNL1       -0.2039
      8 C         137.9705  145.0892  163.4159 C.ar    1  UNL1        0.0299
      9 C         137.7768  143.7830  164.1273 C.ar    1  UNL1        0.0021
     10 C         138.7275  142.6485  163.8845 C.ar    1  UNL1        0.0008
     11 C         139.8719  142.8202  162.9302 C.ar    1  UNL1        0.0390
     12 H         142.6369  144.8934  159.9104 H       1  UNL1        0.2884
     13 H         141.3972  145.9532  160.4078 H       1  UNL1        0.2884
     14 C         145.0266  139.0216  163.9984 C.3     1  UNL1        0.0360
     15 C         143.9453  139.3202  163.0027 C.ar    1  UNL1        0.0342
     16 C         142.9945  140.4547  163.2455 C.ar    1  UNL1        0.0023
     17 C         141.9132  140.7533  162.2497 C.ar    1  UNL1        0.0468
     18 C         141.7827  139.9175  161.0111 C.ar    1  UNL1        0.0787
     19 N         142.7334  138.7830  160.7682 N.ar    1  UNL1       -0.2926
     20 C         142.6028  137.9471  159.5295 C.3     1  UNL1        0.1336
     21 C         143.8147  138.4844  161.7640 C.ar    1  UNL1        0.2569
     22 O         144.7655  137.3498  161.5211 O.2     1  UNL1       -0.2673
     23 C         140.2935  140.9207  163.4237 C.ar    1  UNL1        0.0297
     24 C         139.2473  139.9801  162.9033 C.ar    1  UNL1        0.0004
     25 C         138.5783  139.0129  163.8344 C.ar    1  UNL1       -0.0002
     26 C         138.9555  138.9862  165.2860 C.ar    1  UNL1        0.0001
     27 C         140.0017  139.9268  165.8064 C.ar    1  UNL1        0.0028
     28 C         140.6707  140.8940  164.8753 C.ar    1  UNL1        0.0005
     29 C         140.3789  139.9002  167.2580 C.ar    1  UNL1        0.0384
     30 C         139.3112  139.9339  168.3110 C.ar    1  UNL1        0.1022
     31 N         139.6883  139.9073  169.7626 N.ar    1  UNL1       -0.2224
     32 C         141.1332  139.8470  170.1611 C.ar    1  UNL1        0.1989
     33 N         142.2009  139.8133  169.1080 N.ar    1  UNL1       -0.2224
     34 C         141.8238  139.8399  167.6565 C.ar    1  UNL1        0.1022
@<TRIPOS>BOND
     1    14    15    1
     2    15    16   ar
     3    16    17   ar
     4    17     1    1
     5     1    23    1
     6    23    24   ar
     7    24    25   ar
     8    25    26   ar
     9    26    27   ar
    10    27    29    1
    11    29    30   ar
    12    30    31   ar
    13    31    32   ar
    14    32    33   ar
    15    33    34   ar
    16    27    28   ar
    17     1     2    1
    18     2     3    2
    19     3     4    1
    20     3     5    1
    21     5     6   ar
    22     6     7    1
    23     6     8   ar
    24     8     9   ar
    25     9    10   ar
    26    10    11   ar
    27    17    18   ar
    28    18    19   ar
    29    19    20    1
    30    19    21   ar
    31    21    22    2
    32    21    15   ar
    33    11     1    1
    34    28    23   ar
    35    11     5   ar
    36    34    29   ar
    37     4    12    1
    38     4    13    1
@<TRIPOS>MOLECULE
*****
 34 38 0 0 0
SMALL
GASTEIGER

@<TRIPOS>ATOM
      1 C         140.8344  140.6350  165.0056 C.3     1  UNL1        0.2321
      2 N         140.9604  141.6370  166.1147 N.2     1  UNL1       -0.0614
      3 C         140.0535  141.2097  167.2305 C.2     1  UNL1        0.3157
      4 N         139.8659  141.9232  168.5365 N.pl3   1  UNL1       -0.2464
      5 C         139.3670  139.9437  166.8110 C.ar    1  UNL1        0.1094
      6 C         138.3649  139.0685  167.5035 C.ar    1  UNL1        0.1470
      7 F         137.8822  139.4237  168.8786 F       1  UNL1       -0.2039
      8 C         137.8454  137.8380  166.8208 C.ar    1  UNL1        0.0299
      9 C         138.3280  137.4828  165.4457 C.ar    1  UNL1        0.0021
     10 C         139.3301  138.3581  164.7533 C.ar    1  UNL1        0.0008
     11 C         139.8497  139.5885  165.4359 C.ar    1  UNL1        0.0390
     12 H         140.3641  142.7522  168.7205 H       1  UNL1        0.2884
     13 H         139.2447  141.5625  169.2097 H       1  UNL1        0.2884
     14 C         145.7538  141.6809  163.6995 C.3     1  UNL1        0.0360
     15 C         144.2963  142.0332  163.6601 C.ar    1  UNL1        0.0342
     16 C         143.2941  141.1580  164.3525 C.ar    1  UNL1        0.0023
     17 C         141.8366  141.5104  164.3131 C.ar    1  UNL1        0.0468
     18 C         141.3813  142.7380  163.5813 C.ar    1  UNL1        0.0787
     19 N         142.3835  143.6132  162.8889 N.ar    1  UNL1       -0.2926
     20 C         141.9282  144.8409  162.1570 C.3     1  UNL1        0.1336
     21 C         143.8410  143.2609  162.9283 C.ar    1  UNL1        0.2569
     22 O         144.8432  144.1362  162.2358 O.2     1  UNL1       -0.2673
     23 C         140.9179  139.8160  163.7517 C.ar    1  UNL1        0.0297
     24 C         141.7445  138.5645  163.7270 C.ar    1  UNL1        0.0004
     25 C         141.8280  137.7455  162.4730 C.ar    1  UNL1       -0.0002
     26 C         141.0850  138.1781  161.2438 C.ar    1  UNL1        0.0001
     27 C         140.2585  139.4296  161.2685 C.ar    1  UNL1        0.0028
     28 C         140.1749  140.2485  162.5224 C.ar    1  UNL1        0.0005
     29 C         139.5155  139.8621  160.0394 C.ar    1  UNL1        0.0384
     30 C         139.4887  138.9767  158.8288 C.ar    1  UNL1        0.1022
     31 N         138.7457  139.4091  157.5996 N.ar    1  UNL1       -0.2224
     32 C         138.0295  140.7270  157.5809 C.ar    1  UNL1        0.1989
     33 N         138.0563  141.6124  158.7916 N.ar    1  UNL1       -0.2224
     34 C         138.7993  141.1799  160.0207 C.ar    1  UNL1        0.1022
@<TRIPOS>BOND
     1    14    15    1
     2    15    16   ar
     3    16    17   ar
     4    17     1    1
     5     1    23    1
     6    23    24   ar
     7    24    25   ar
     8    25    26   ar
     9    26    27   ar
    10    27    29    1
    11    29    30   ar
    12    30    31   ar
    13    31    32   ar
    14    32    33   ar
    15    33    34   ar
    16    27    28   ar
    17     1     2    1
    18     2     3    2
    19     3     4    1
    20     3     5    1
    21     5     6   ar
    22     6     7    1
    23     6     8   ar
    24     8     9   ar
    25     9    10   ar
    26    10    11   ar
    27    17    18   ar
    28    18    19   ar
    29    19    20    1
    30    19    21   ar
    31    21    22    2
    32    21    15   ar
    33    11     1    1
    34    28    23   ar
    35    11     5   ar
    36    34    29   ar
    37     4    12    1
    38     4    13    1
@<TRIPOS>MOLECULE
*****
 34 38 0 0 0
SMALL
GASTEIGER

@<TRIPOS>ATOM
      1 C         140.5789  140.7630  166.9020 C.3     1  UNL1        0.2321
      2 N         139.4046  140.1938  167.6416 N.2     1  UNL1       -0.0614
      3 C         139.6001  140.4686  169.1032 C.2     1  UNL1        0.3157
      4 N         138.6647  140.0737  170.2074 N.pl3   1  UNL1       -0.2464
      5 C         140.8952  141.2075  169.2669 C.ar    1  UNL1        0.1094
      6 C         141.6017  141.7382  170.4790 C.ar    1  UNL1        0.1470
      7 F         140.9967  141.5562  171.8394 F       1  UNL1       -0.2039
      8 C         142.9132  142.4508  170.3305 C.ar    1  UNL1        0.0299
      9 C         143.5182  142.6328  168.9701 C.ar    1  UNL1        0.0021
     10 C         142.8116  142.1021  167.7580 C.ar    1  UNL1        0.0008
     11 C         141.5001  141.3895  167.9064 C.ar    1  UNL1        0.0390
     12 H         137.8342  139.5880  169.9988 H       1  UNL1        0.2884
     13 H         138.8814  140.3002  171.1406 H       1  UNL1        0.2884
     14 C         139.9058  137.0151  163.3664 C.3     1  UNL1        0.0360
     15 C         139.5358  138.3583  163.9221 C.ar    1  UNL1        0.0342
     16 C         140.2423  138.8890  165.1342 C.ar    1  UNL1        0.0023
     17 C         139.8723  140.2323  165.6898 C.ar    1  UNL1        0.0468
     18 C         138.7958  141.0448  165.0335 C.ar    1  UNL1        0.0787
     19 N         138.0892  140.5141  163.8215 N.ar    1  UNL1       -0.2926
     20 C         137.0126  141.3266  163.1651 C.3     1  UNL1        0.1336
     21 C         138.4592  139.1708  163.2658 C.ar    1  UNL1        0.2569
     22 O         137.7526  138.6401  162.0537 O.2     1  UNL1       -0.2673
     23 C         141.6055  141.2212  165.9089 C.ar    1  UNL1        0.0297
     24 C         143.0095  140.6989  165.9864 C.ar    1  UNL1        0.0004
     25 C         144.0361  141.1571  164.9932 C.ar    1  UNL1       -0.0002
     26 C         143.6586  142.1377  163.9227 C.ar    1  UNL1        0.0001
     27 C         142.2546  142.6600  163.8452 C.ar    1  UNL1        0.0028
     28 C         141.2281  142.2018  164.8383 C.ar    1  UNL1        0.0005
     29 C         141.8772  143.6406  162.7747 C.ar    1  UNL1        0.0384
     30 C         140.8151  144.6665  163.0381 C.ar    1  UNL1        0.1022
     31 N         140.4376  145.6472  161.9676 N.ar    1  UNL1       -0.2224
     32 C         141.1222  145.6017  160.6337 C.ar    1  UNL1        0.1989
     33 N         142.1843  144.5757  160.3703 N.ar    1  UNL1       -0.2224
     34 C         142.5618  143.5951  161.4408 C.ar    1  UNL1        0.1022
@<TRIPOS>BOND
     1    14    15    1
     2    15    16   ar
     3    16    17   ar
     4    17     1    1
     5     1    23    1
     6    23    24   ar
     7    24    25   ar
     8    25    26   ar
     9    26    27   ar
    10    27    29    1
    11    29    30   ar
    12    30    31   ar
    13    31    32   ar
    14    32    33   ar
    15    33    34   ar
    16    27    28   ar
    17     1     2    1
    18     2     3    2
    19     3     4    1
    20     3     5    1
    21     5     6   ar
    22     6     7    1
    23     6     8   ar
    24     8     9   ar
    25     9    10   ar
    26    10    11   ar
    27    17    18   ar
    28    18    19   ar
    29    19    20    1
    30    19    21   ar
    31    21    22    2
    32    21    15   ar
    33    11     1    1
    34    28    23   ar
    35    11     5   ar
    36    34    29   ar
    37     4    12    1
    38     4    13    1
@<TRIPOS>MOLECULE
*****
 34 38 0 0 0
SMALL
GASTEIGER

@<TRIPOS>ATOM
      1 C         141.2003  142.1147  166.9244 C.3     1  UNL1        0.2321
      2 N         140.4868  143.1524  167.7394 N.2     1  UNL1       -0.0614
      3 C         140.4803  142.6956  169.1681 C.2     1  UNL1        0.3157
      4 N         139.8713  143.4299  170.3257 N.pl3   1  UNL1       -0.2464
      5 C         141.1896  141.3757  169.2361 C.ar    1  UNL1        0.1094
      6 C         141.4878  140.4544  170.3816 C.ar    1  UNL1        0.1470
      7 F         141.0429  140.8134  171.7683 F       1  UNL1       -0.2039
      8 C         142.2310  139.1740  170.1403 C.ar    1  UNL1        0.0299
      9 C         142.6760  138.8150  168.7536 C.ar    1  UNL1        0.0021
     10 C         142.3778  139.7363  167.6081 C.ar    1  UNL1        0.0008
     11 C         141.6346  141.0167  167.8494 C.ar    1  UNL1        0.0390
     12 H         139.4245  144.2950  170.1798 H       1  UNL1        0.2884
     13 H         139.9183  143.0467  171.2314 H       1  UNL1        0.2884
     14 C         142.8487  145.3028  163.1669 C.3     1  UNL1        0.0360
     15 C         141.7262  144.6302  163.9001 C.ar    1  UNL1        0.0342
     16 C         142.0244  143.7088  165.0456 C.ar    1  UNL1        0.0023
     17 C         140.9020  143.0361  165.7788 C.ar    1  UNL1        0.0468
     18 C         139.4814  143.2849  165.3667 C.ar    1  UNL1        0.0787
     19 N         139.1832  144.2062  164.2212 N.ar    1  UNL1       -0.2926
     20 C         137.7625  144.4550  163.8090 C.3     1  UNL1        0.1336
     21 C         140.3056  144.8789  163.4880 C.ar    1  UNL1        0.2569
     22 O         140.0074  145.8003  162.3424 O.2     1  UNL1       -0.2673
     23 C         141.8513  141.2697  165.8698 C.ar    1  UNL1        0.0297
     24 C         143.3354  141.0530  165.8929 C.ar    1  UNL1        0.0004
     25 C         143.9865  140.2079  164.8383 C.ar    1  UNL1       -0.0002
     26 C         143.1534  139.5796  163.7607 C.ar    1  UNL1        0.0001
     27 C         141.6693  139.7963  163.7376 C.ar    1  UNL1        0.0028
     28 C         141.0183  140.6413  164.7922 C.ar    1  UNL1        0.0005
     29 C         140.8363  139.1679  162.6600 C.ar    1  UNL1        0.0384
     30 C         139.5270  138.5223  163.0048 C.ar    1  UNL1        0.1022
     31 N         138.6939  137.8939  161.9272 N.ar    1  UNL1       -0.2224
     32 C         139.1701  137.9112  160.5049 C.ar    1  UNL1        0.1989
     33 N         140.4795  138.5570  160.1602 N.ar    1  UNL1       -0.2224
     34 C         141.3125  139.1853  161.2377 C.ar    1  UNL1        0.1022
@<TRIPOS>BOND
     1    14    15    1
     2    15    16   ar
     3    16    17   ar
     4    17     1    1
     5     1    23    1
     6    23    24   ar
     7    24    25   ar
     8    25    26   ar
     9    26    27   ar
    10    27    29    1
    11    29    30   ar
    12    30    31   ar
    13    31    32   ar
    14    32    33   ar
    15    33    34   ar
    16    27    28   ar
    17     1     2    1
    18     2     3    2
    19     3     4    1
    20     3     5    1
    21     5     6   ar
    22     6     7    1
    23     6     8   ar
    24     8     9   ar
    25     9    10   ar
    26    10    11   ar
    27    17    18   ar
    28    18    19   ar
    29    19    20    1
    30    19    21   ar
    31    21    22    2
    32    21    15   ar
    33    11     1    1
    34    28    23   ar
    35    11     5   ar
    36    34    29   ar
    37     4    12    1
    38     4    13    1
@<TRIPOS>MOLECULE
*****
 34 38 0 0 0
SMALL
GASTEIGER

@<TRIPOS>ATOM
      1 C         142.5059  143.2105  159.8405 C.3     1  UNL1        0.2321
      2 N         141.9740  143.8524  158.5935 N.2     1  UNL1       -0.0614
      3 C         141.0308  144.9453  159.0009 C.2     1  UNL1        0.3157
      4 N         140.2718  145.8465  158.0726 N.pl3   1  UNL1       -0.2464
      5 C         140.9798  144.9788  160.4997 C.ar    1  UNL1        0.1094
      6 C         140.2210  145.8470  161.4590 C.ar    1  UNL1        0.1470
      7 F         139.3093  146.9192  160.9401 F       1  UNL1       -0.2039
      8 C         140.3739  145.6431  162.9371 C.ar    1  UNL1        0.0299
      9 C         141.2856  144.5709  163.4560 C.ar    1  UNL1        0.0021
     10 C         142.0444  143.7027  162.4967 C.ar    1  UNL1        0.0008
     11 C         141.8915  143.9066  161.0186 C.ar    1  UNL1        0.0390
     12 H         140.3720  145.7465  157.0983 H       1  UNL1        0.2884
     13 H         139.6735  146.5379  158.4376 H       1  UNL1        0.2884
     14 C         142.9247  138.7970  157.1300 C.3     1  UNL1        0.0360
     15 C         143.4741  140.1355  157.5259 C.ar    1  UNL1        0.0342
     16 C         142.7154  141.0037  158.4852 C.ar    1  UNL1        0.0023
     17 C         143.2648  142.3422  158.8811 C.ar    1  UNL1        0.0468
     18 C         144.5730  142.8123  158.3176 C.ar    1  UNL1        0.0787
     19 N         145.3317  141.9441  157.3583 N.ar    1  UNL1       -0.2926
     20 C         146.6400  142.4142  156.7948 C.3     1  UNL1        0.1336
     21 C         144.7823  140.6056  156.9624 C.ar    1  UNL1        0.2569
     22 O         145.5411  139.7373  156.0031 O.2     1  UNL1       -0.2673
     23 C         143.1965  142.3870  160.8869 C.ar    1  UNL1        0.0297
     24 C         144.5830  142.7481  161.3311 C.ar    1  UNL1        0.0004
     25 C         145.2736  141.9246  162.3776 C.ar    1  UNL1       -0.0002
     26 C         144.5777  140.7400  162.9797 C.ar    1  UNL1        0.0001
     27 C         143.1912  140.3789  162.5354 C.ar    1  UNL1        0.0028
     28 C         142.5006  141.2024  161.4890 C.ar    1  UNL1        0.0005
     29 C         142.4953  139.1944  163.1376 C.ar    1  UNL1        0.0384
     30 C         141.6689  138.2902  162.2719 C.ar    1  UNL1        0.1022
     31 N         140.9729  137.1056  162.8739 N.ar    1  UNL1       -0.2224
     32 C         141.1035  136.8252  164.3417 C.ar    1  UNL1        0.1989
     33 N         141.9300  137.7295  165.2074 N.ar    1  UNL1       -0.2224
     34 C         142.6259  138.9140  164.6054 C.ar    1  UNL1        0.1022
@<TRIPOS>BOND
     1    14    15    1
     2    15    16   ar
     3    16    17   ar
     4    17     1    1
     5     1    23    1
     6    23    24   ar
     7    24    25   ar
     8    25    26   ar
     9    26    27   ar
    10    27    29    1
    11    29    30   ar
    12    30    31   ar
    13    31    32   ar
    14    32    33   ar
    15    33    34   ar
    16    27    28   ar
    17     1     2    1
    18     2     3    2
    19     3     4    1
    20     3     5    1
    21     5     6   ar
    22     6     7    1
    23     6     8   ar
    24     8     9   ar
    25     9    10   ar
    26    10    11   ar
    27    17    18   ar
    28    18    19   ar
    29    19    20    1
    30    19    21   ar
    31    21    22    2
    32    21    15   ar
    33    11     1    1
    34    28    23   ar
    35    11     5   ar
    36    34    29   ar
    37     4    12    1
    38     4    13    1
@<TRIPOS>MOLECULE
*****
 34 38 0 0 0
SMALL
GASTEIGER

@<TRIPOS>ATOM
      1 C         141.1689  142.1179  166.9481 C.3     1  UNL1        0.2321
      2 N         140.4605  143.1517  167.7723 N.2     1  UNL1       -0.0614
      3 C         140.4822  142.6990  169.2022 C.2     1  UNL1        0.3157
      4 N         139.8867  143.4313  170.3680 N.pl3   1  UNL1       -0.2464
      5 C         141.2041  141.3855  169.2617 C.ar    1  UNL1        0.1094
      6 C         141.5298  140.4700  170.4044 C.ar    1  UNL1        0.1470
      7 F         141.1055  140.8291  171.7975 F       1  UNL1       -0.2039
      8 C         142.2799  139.1954  170.1539 C.ar    1  UNL1        0.0299
      9 C         142.7043  138.8363  168.7607 C.ar    1  UNL1        0.0021
     10 C         142.3786  139.7518  167.6180 C.ar    1  UNL1        0.0008
     11 C         141.6285  141.0263  167.8685 C.ar    1  UNL1        0.0390
     12 H         139.4300  144.2920  170.2275 H       1  UNL1        0.2884
     13 H         139.9525  143.0511  171.2738 H       1  UNL1        0.2884
     14 C         137.6586  144.4120  163.8796 C.3     1  UNL1        0.0360
     15 C         139.0880  144.1805  164.2712 C.ar    1  UNL1        0.0342
     16 C         139.4138  143.2650  165.4138 C.ar    1  UNL1        0.0023
     17 C         140.8431  143.0335  165.8053 C.ar    1  UNL1        0.0468
     18 C         141.9467  143.7174  165.0542 C.ar    1  UNL1        0.0787
     19 N         141.6209  144.6329  163.9115 N.ar    1  UNL1       -0.2926
     20 C         142.7246  145.3169  163.1603 C.3     1  UNL1        0.1336
     21 C         140.1916  144.8644  163.5200 C.ar    1  UNL1        0.2569
     22 O         139.8658  145.7799  162.3773 O.2     1  UNL1       -0.2673
     23 C         141.8092  141.2756  165.8849 C.ar    1  UNL1        0.0297
     24 C         143.2942  141.0638  165.8889 C.ar    1  UNL1        0.0004
     25 C         143.9345  140.2213  164.8256 C.ar    1  UNL1       -0.0002
     26 C         143.0899  139.5908  163.7584 C.ar    1  UNL1        0.0001
     27 C         141.6049  139.8026  163.7544 C.ar    1  UNL1        0.0028
     28 C         140.9646  140.6450  164.8176 C.ar    1  UNL1        0.0005
     29 C         140.7602  139.1721  162.6872 C.ar    1  UNL1        0.0384
     30 C         141.2481  139.1344  161.2693 C.ar    1  UNL1        0.1022
     31 N         140.4035  138.5039  160.2019 N.ar    1  UNL1       -0.2224
     32 C         139.0710  137.9110  160.5526 C.ar    1  UNL1        0.1989
     33 N         138.5831  137.9488  161.9707 N.ar    1  UNL1       -0.2224
     34 C         139.4277  138.5792  163.0379 C.ar    1  UNL1        0.1022
@<TRIPOS>BOND
     1    14    15    1
     2    15    16   ar
     3    16    17   ar
     4    17     1    1
     5     1    23    1
     6    23    24   ar
     7    24    25   ar
     8    25    26   ar
     9    26    27   ar
    10    27    29    1
    11    29    30   ar
    12    30    31   ar
    13    31    32   ar
    14    32    33   ar
    15    33    34   ar
    16    27    28   ar
    17     1     2    1
    18     2     3    2
    19     3     4    1
    20     3     5    1
    21     5     6   ar
    22     6     7    1
    23     6     8   ar
    24     8     9   ar
    25     9    10   ar
    26    10    11   ar
    27    17    18   ar
    28    18    19   ar
    29    19    20    1
    30    19    21   ar
    31    21    22    2
    32    21    15   ar
    33    11     1    1
    34    28    23   ar
    35    11     5   ar
    36    34    29   ar
    37     4    12    1
    38     4    13    1
@<TRIPOS>MOLECULE
*****
 34 38 0 0 0
SMALL
GASTEIGER

@<TRIPOS>ATOM
      1 C         140.8393  141.8220  161.6094 C.3     1  UNL1        0.2321
      2 N         141.4362  142.6102  160.4815 N.2     1  UNL1       -0.0614
      3 C         141.1417  144.0610  160.7232 C.2     1  UNL1        0.3157
      4 N         141.5538  145.2030  159.8423 N.pl3   1  UNL1       -0.2464
      5 C         140.3628  144.1694  162.0006 C.ar    1  UNL1        0.1094
      6 C         139.7996  145.3494  162.7357 C.ar    1  UNL1        0.1470
      7 F         139.9865  146.7332  162.1879 F       1  UNL1       -0.2039
      8 C         139.0495  145.1455  164.0185 C.ar    1  UNL1        0.0299
      9 C         138.8625  143.7616  164.5662 C.ar    1  UNL1        0.0021
     10 C         139.4257  142.5817  163.8311 C.ar    1  UNL1        0.0008
     11 C         140.1759  142.7856  162.5483 C.ar    1  UNL1        0.0390
     12 H         142.0661  145.0301  159.0196 H       1  UNL1        0.2884
     13 H         141.3120  146.1255  160.0868 H       1  UNL1        0.2884
     14 C         144.1416  137.8163  161.3872 C.3     1  UNL1        0.0360
     15 C         143.0537  138.6391  160.7632 C.ar    1  UNL1        0.0342
     16 C         142.4904  139.8191  161.4983 C.ar    1  UNL1        0.0023
     17 C         141.4025  140.6420  160.8743 C.ar    1  UNL1        0.0468
     18 C         140.8779  140.2849  159.5152 C.ar    1  UNL1        0.0787
     19 N         141.4411  139.1049  158.7801 N.ar    1  UNL1       -0.2926
     20 C         140.9165  138.7478  157.4209 C.3     1  UNL1        0.1336
     21 C         142.5290  138.2821  159.4041 C.ar    1  UNL1        0.2569
     22 O         143.0923  137.1021  158.6689 O.2     1  UNL1       -0.2673
     23 C         140.3601  140.7870  162.5837 C.ar    1  UNL1        0.0297
     24 C         139.2383  139.8651  162.2073 C.ar    1  UNL1        0.0004
     25 C         138.7591  138.8301  163.1816 C.ar    1  UNL1       -0.0002
     26 C         139.4017  138.7170  164.5322 C.ar    1  UNL1        0.0001
     27 C         140.5236  139.6388  164.9086 C.ar    1  UNL1        0.0028
     28 C         141.0028  140.6738  163.9344 C.ar    1  UNL1        0.0005
     29 C         141.1662  139.5257  166.2592 C.ar    1  UNL1        0.0384
     30 C         142.5510  138.9633  166.3862 C.ar    1  UNL1        0.1022
     31 N         143.1938  138.8501  167.7367 N.ar    1  UNL1       -0.2224
     32 C         142.4517  139.2995  168.9604 C.ar    1  UNL1        0.1989
     33 N         141.0669  139.8620  168.8335 N.ar    1  UNL1       -0.2224
     34 C         140.4242  139.9751  167.4830 C.ar    1  UNL1        0.1022
@<TRIPOS>BOND
     1    14    15    1
     2    15    16   ar
     3    16    17   ar
     4    17     1    1
     5     1    23    1
     6    23    24   ar
     7    24    25   ar
     8    25    26   ar
     9    26    27   ar
    10    27    29    1
    11    29    30   ar
    12    30    31   ar
    13    31    32   ar
    14    32    33   ar
    15    33    34   ar
    16    27    28   ar
    17     1     2    1
    18     2     3    2
    19     3     4    1
    20     3     5    1
    21     5     6   ar
    22     6     7    1
    23     6     8   ar
    24     8     9   ar
    25     9    10   ar
    26    10    11   ar
    27    17    18   ar
    28    18    19   ar
    29    19    20    1
    30    19    21   ar
    31    21    22    2
    32    21    15   ar
    33    11     1    1
    34    28    23   ar
    35    11     5   ar
    36    34    29   ar
    37     4    12    1
    38     4    13    1
