@<TRIPOS>MOLECULE
*****
 45 48 0 0 0
SMALL
GASTEIGER

@<TRIPOS>ATOM
      1 C         141.4380  140.8252  162.3686 C.3     1  UNL1        0.0808
      2 C         141.4534  140.5779  163.8481 C.ar    1  UNL1        0.0375
      3 C         141.0887  141.6812  164.7966 C.ar    1  UNL1        0.0023
      4 C         141.1042  141.4340  166.2760 C.ar    1  UNL1        0.0181
      5 C         140.7395  142.5372  167.2246 C.ar    1  UNL1        0.0082
      6 C         140.7549  142.2900  168.7041 C.ar    1  UNL1        0.0347
      7 BR        140.3902  143.3932  169.6527 Br      1  UNL1       -0.0490
      8 C         141.1351  140.9396  169.2349 C.ar    1  UNL1        0.0082
      9 C         141.4998  139.8363  168.2863 C.ar    1  UNL1        0.0197
     10 C         141.4844  140.0835  166.8069 C.ar    1  UNL1        0.0844
     11 N         141.8491  138.9803  165.8583 N.ar    1  UNL1       -0.2119
     12 C         141.8336  139.2275  164.3788 C.ar    1  UNL1        0.2211
     13 O         142.1983  138.1243  163.4302 O.3     1  UNL1       -0.4563
     14 C         141.0351  137.1772  163.4308 C.3     1  UNL1        0.2542
     15 C         140.3165  140.2876  161.5300 C.ar    1  UNL1        0.0245
     16 C         138.8931  140.5468  161.9259 C.ar    1  UNL1        0.0200
     17 C         137.7716  140.0092  161.0874 C.ar    1  UNL1        0.1019
     18 N         138.0735  139.2124  159.8529 N.ar    1  UNL1       -0.2076
     19 C         139.4969  138.9531  159.4570 C.ar    1  UNL1        0.2598
     20 C         140.6184  139.4907  160.2956 C.ar    1  UNL1        0.1879
     21 O         139.7988  138.1563  158.2226 O.3     1  UNL1       -0.4541
     22 C         139.5687  138.7567  156.8674 C.3     1  UNL1        0.2543
     23 O         142.0418  139.2315  159.8998 O.3     1  UNL1       -0.4670
     24 C         142.6057  137.8446  159.9937 C.3     1  UNL1        0.2527
     25 C         142.5440  141.6100  161.7278 C.3     1  UNL1        0.1162
     26 O         143.5060  140.4986  162.0269 O.3     1  UNL1       -0.3820
     27 H         144.3877  140.7376  161.7007 H       1  UNL1        0.2107
     28 C         140.3120  144.1956  159.7071 C.ar    1  UNL1        0.2271
     29 C         141.2740  143.0842  160.0062 C.ar    1  UNL1        0.0559
     30 C         141.5821  142.7214  161.4287 C.ar    1  UNL1        0.0117
     31 C         140.9283  143.4701  162.5520 C.ar    1  UNL1        0.0559
     32 C         139.9664  144.5815  162.2529 C.ar    1  UNL1        0.2270
     33 N         139.6582  144.9443  160.8305 N.ar    1  UNL1       -0.1767
     34 O         140.0039  144.5583  158.2846 O.3     1  UNL1       -0.4602
     35 C         142.0639  145.8914  157.4307 C.3     1  UNL1        0.0512
     36 C         140.5883  145.8027  157.6845 C.3     1  UNL1        0.2072
     37 O         139.3126  145.3302  163.3764 O.3     1  UNL1       -0.4640
     38 C         138.5332  144.5863  164.4200 C.3     1  UNL1        0.1678
     39 C         137.7660  143.3529  164.0458 C.3     1  UNL1        0.0473
     40 C         138.5211  145.0757  165.8379 C.3     1  UNL1        0.0473
     41 C         143.6501  142.3949  161.0870 C.3     1  UNL1        0.0491
     42 C         144.5478  143.2515  161.9299 C.3     1  UNL1        0.0750
     43 N         144.8375  142.8640  163.3497 N.3     1  UNL1       -0.2702
     44 C         144.1478  143.5741  164.4767 C.3     1  UNL1        0.0897
     45 C         145.8170  141.7663  163.6426 C.3     1  UNL1        0.0897
@<TRIPOS>BOND
     1    35    36    1
     2    36    34    1
     3    34    28    1
     4    28    29   ar
     5    29    30   ar
     6    30    25    1
     7    25    26    1
     8    25    41    1
     9    41    42    1
    10    42    43    1
    11    43    44    1
    12    43    45    1
    13    25     1    1
    14     1     2    1
    15     2     3   ar
    16     3     4   ar
    17     4     5   ar
    18     5     6   ar
    19     6     7    1
    20     6     8   ar
    21     8     9   ar
    22     9    10   ar
    23    10    11   ar
    24    11    12   ar
    25    12    13    1
    26    13    14    1
    27     1    15    1
    28    15    16   ar
    29    16    17   ar
    30    17    18   ar
    31    18    19   ar
    32    19    21    1
    33    21    22    1
    34    19    20   ar
    35    20    23    1
    36    23    24    1
    37    30    31   ar
    38    31    32   ar
    39    32    37    1
    40    37    38    1
    41    38    39    1
    42    38    40    1
    43    32    33   ar
    44    33    28   ar
    45    12     2   ar
    46    20    15   ar
    47    10     4   ar
    48    26    27    1
@<TRIPOS>MOLECULE
*****
 45 48 0 0 0
SMALL
GASTEIGER

@<TRIPOS>ATOM
      1 C         141.6974  141.7872  162.5013 C.3     1  UNL1        0.0808
      2 C         142.0802  141.9048  163.9469 C.ar    1  UNL1        0.0375
      3 C         141.0895  141.5511  165.0162 C.ar    1  UNL1        0.0023
      4 C         141.4722  141.6687  166.4617 C.ar    1  UNL1        0.0181
      5 C         140.4815  141.3149  167.5311 C.ar    1  UNL1        0.0082
      6 C         140.8643  141.4325  168.9767 C.ar    1  UNL1        0.0347
      7 BR        139.8736  141.0788  170.0460 Br      1  UNL1       -0.0490
      8 C         142.2377  141.9038  169.3529 C.ar    1  UNL1        0.0082
      9 C         143.2284  142.2576  168.2836 C.ar    1  UNL1        0.0197
     10 C         142.8457  142.1400  166.8380 C.ar    1  UNL1        0.0844
     11 N         143.8363  142.4937  165.7687 N.ar    1  UNL1       -0.2119
     12 C         143.4536  142.3761  164.3231 C.ar    1  UNL1        0.2211
     13 O         144.4442  142.7298  163.2538 O.3     1  UNL1       -0.4563
     14 C         145.6094  141.8053  163.4476 C.3     1  UNL1        0.2542
     15 C         142.5425  140.9750  161.5653 C.ar    1  UNL1        0.0245
     16 C         142.7828  139.5205  161.8425 C.ar    1  UNL1        0.0200
     17 C         143.6279  138.7083  160.9066 C.ar    1  UNL1        0.1019
     18 N         144.2327  139.3505  159.6934 N.ar    1  UNL1       -0.2076
     19 C         143.9925  140.8049  159.4162 C.ar    1  UNL1        0.2598
     20 C         143.1473  141.6172  160.3522 C.ar    1  UNL1        0.1879
     21 O         144.5973  141.4471  158.2031 O.3     1  UNL1       -0.4541
     22 C         144.1177  141.0648  156.8343 C.3     1  UNL1        0.2543
     23 O         142.9070  143.0716  160.0750 O.3     1  UNL1       -0.4670
     24 C         142.0382  143.4821  158.9231 C.3     1  UNL1        0.2527
     25 C         140.4695  142.4819  161.9917 C.3     1  UNL1        0.1162
     26 O         141.0559  143.8057  162.3834 O.3     1  UNL1       -0.3820
     27 H         140.4336  144.5146  162.1572 H       1  UNL1        0.2107
     28 C         139.1030  139.4989  159.7590 C.ar    1  UNL1        0.2271
     29 C         139.6894  140.8228  160.1508 C.ar    1  UNL1        0.0559
     30 C         139.8831  141.1580  161.5999 C.ar    1  UNL1        0.0117
     31 C         139.4904  140.1693  162.6573 C.ar    1  UNL1        0.0559
     32 C         138.9040  138.8454  162.2656 C.ar    1  UNL1        0.2270
     33 N         138.7103  138.5102  160.8164 N.ar    1  UNL1       -0.1767
     34 O         138.9093  139.1638  158.3098 O.3     1  UNL1       -0.4602
     35 C         141.3103  138.3056  157.8110 C.3     1  UNL1        0.0512
     36 C         139.8254  138.1845  157.6376 C.3     1  UNL1        0.2072
     37 O         138.5112  137.8566  163.3231 O.3     1  UNL1       -0.4640
     38 C         139.1989  137.8714  164.6561 C.3     1  UNL1        0.1678
     39 C         140.6319  137.4419  164.7656 C.3     1  UNL1        0.0473
     40 C         138.4535  138.3157  165.8796 C.3     1  UNL1        0.0473
     41 C         139.2416  143.1765  161.4821 C.3     1  UNL1        0.0491
     42 C         138.5114  144.1493  162.3600 C.3     1  UNL1        0.0750
     43 N         138.3592  143.8689  163.8256 N.3     1  UNL1       -0.2702
     44 C         138.9672  144.7979  164.8341 C.3     1  UNL1        0.0897
     45 C         137.5989  142.6592  164.2828 C.3     1  UNL1        0.0897
@<TRIPOS>BOND
     1    35    36    1
     2    36    34    1
     3    34    28    1
     4    28    29   ar
     5    29    30   ar
     6    30    25    1
     7    25    26    1
     8    25    41    1
     9    41    42    1
    10    42    43    1
    11    43    44    1
    12    43    45    1
    13    25     1    1
    14     1     2    1
    15     2     3   ar
    16     3     4   ar
    17     4     5   ar
    18     5     6   ar
    19     6     7    1
    20     6     8   ar
    21     8     9   ar
    22     9    10   ar
    23    10    11   ar
    24    11    12   ar
    25    12    13    1
    26    13    14    1
    27     1    15    1
    28    15    16   ar
    29    16    17   ar
    30    17    18   ar
    31    18    19   ar
    32    19    21    1
    33    21    22    1
    34    19    20   ar
    35    20    23    1
    36    23    24    1
    37    30    31   ar
    38    31    32   ar
    39    32    37    1
    40    37    38    1
    41    38    39    1
    42    38    40    1
    43    32    33   ar
    44    33    28   ar
    45    12     2   ar
    46    20    15   ar
    47    10     4   ar
    48    26    27    1
@<TRIPOS>MOLECULE
*****
 45 48 0 0 0
SMALL
GASTEIGER

@<TRIPOS>ATOM
      1 C         141.7531  140.9805  162.5554 C.3     1  UNL1        0.0808
      2 C         141.5918  140.7174  164.0234 C.ar    1  UNL1        0.0375
      3 C         141.2782  141.8480  164.9579 C.ar    1  UNL1        0.0023
      4 C         141.1169  141.5850  166.4258 C.ar    1  UNL1        0.0181
      5 C         140.8034  142.7156  167.3604 C.ar    1  UNL1        0.0082
      6 C         140.6420  142.4525  168.8283 C.ar    1  UNL1        0.0347
      7 BR        140.3285  143.5831  169.7629 Br      1  UNL1       -0.0490
      8 C         140.7942  141.0589  169.3616 C.ar    1  UNL1        0.0082
      9 C         141.1077  139.9282  168.4271 C.ar    1  UNL1        0.0197
     10 C         141.2690  140.1913  166.9592 C.ar    1  UNL1        0.0844
     11 N         141.5826  139.0606  166.0246 N.ar    1  UNL1       -0.2119
     12 C         141.7439  139.3238  164.5567 C.ar    1  UNL1        0.2211
     13 O         142.0574  138.1931  163.6221 O.3     1  UNL1       -0.4563
     14 C         140.9417  137.2034  163.7817 C.3     1  UNL1        0.2542
     15 C         140.9443  140.2020  161.5606 C.ar    1  UNL1        0.0245
     16 C         139.4505  140.1484  161.6862 C.ar    1  UNL1        0.0200
     17 C         138.6417  139.3699  160.6913 C.ar    1  UNL1        0.1019
     18 N         139.3267  138.6449  159.5708 N.ar    1  UNL1       -0.2076
     19 C         140.8205  138.6986  159.4453 C.ar    1  UNL1        0.2598
     20 C         141.6293  139.4772  160.4402 C.ar    1  UNL1        0.1879
     21 O         141.5055  137.9738  158.3249 O.3     1  UNL1       -0.4541
     22 C         141.8887  138.7127  157.0771 C.3     1  UNL1        0.2543
     23 O         143.1231  139.5308  160.3146 O.3     1  UNL1       -0.4670
     24 C         143.9585  138.3850  160.8038 C.3     1  UNL1        0.2527
     25 C         142.7233  142.0222  162.0824 C.3     1  UNL1        0.1162
     26 O         143.8512  141.2551  162.7064 O.3     1  UNL1       -0.3820
     27 H         144.6858  141.7248  162.5525 H       1  UNL1        0.2107
     28 C         139.4072  144.1687  161.7007 C.ar    1  UNL1        0.2271
     29 C         140.5351  143.4016  162.3247 C.ar    1  UNL1        0.0559
     30 C         141.5954  142.7893  161.4583 C.ar    1  UNL1        0.0117
     31 C         141.5279  142.9441  159.9679 C.ar    1  UNL1        0.0559
     32 C         140.4000  143.7112  159.3439 C.ar    1  UNL1        0.2270
     33 N         139.3396  144.3235  160.2103 N.ar    1  UNL1       -0.1767
     34 O         138.3468  144.7810  162.5672 O.3     1  UNL1       -0.4602
     35 C         138.5578  144.7184  165.1559 C.3     1  UNL1        0.0512
     36 C         137.9990  144.1526  163.8840 C.3     1  UNL1        0.2072
     37 O         140.3325  143.8659  157.8533 O.3     1  UNL1       -0.4640
     38 C         140.6880  145.1777  157.2187 C.3     1  UNL1        0.1678
     39 C         141.9804  145.8542  157.5682 C.3     1  UNL1        0.0473
     40 C         139.7512  145.8131  156.2344 C.3     1  UNL1        0.0473
     41 C         143.6935  143.0638  161.6093 C.3     1  UNL1        0.0491
     42 C         144.5814  143.7643  162.5947 C.3     1  UNL1        0.0750
     43 N         144.0295  144.2115  163.9159 N.3     1  UNL1       -0.2702
     44 C         144.5168  143.5782  165.1853 C.3     1  UNL1        0.0897
     45 C         142.9902  145.2919  163.9675 C.3     1  UNL1        0.0897
@<TRIPOS>BOND
     1    35    36    1
     2    36    34    1
     3    34    28    1
     4    28    29   ar
     5    29    30   ar
     6    30    25    1
     7    25    26    1
     8    25    41    1
     9    41    42    1
    10    42    43    1
    11    43    44    1
    12    43    45    1
    13    25     1    1
    14     1     2    1
    15     2     3   ar
    16     3     4   ar
    17     4     5   ar
    18     5     6   ar
    19     6     7    1
    20     6     8   ar
    21     8     9   ar
    22     9    10   ar
    23    10    11   ar
    24    11    12   ar
    25    12    13    1
    26    13    14    1
    27     1    15    1
    28    15    16   ar
    29    16    17   ar
    30    17    18   ar
    31    18    19   ar
    32    19    21    1
    33    21    22    1
    34    19    20   ar
    35    20    23    1
    36    23    24    1
    37    30    31   ar
    38    31    32   ar
    39    32    37    1
    40    37    38    1
    41    38    39    1
    42    38    40    1
    43    32    33   ar
    44    33    28   ar
    45    12     2   ar
    46    20    15   ar
    47    10     4   ar
    48    26    27    1
@<TRIPOS>MOLECULE
*****
 45 48 0 0 0
SMALL
GASTEIGER

@<TRIPOS>ATOM
      1 C         141.4887  140.5047  162.8077 C.3     1  UNL1        0.0808
      2 C         141.8427  140.6389  164.2592 C.ar    1  UNL1        0.0375
      3 C         141.0923  141.6044  165.1280 C.ar    1  UNL1        0.0023
      4 C         141.4462  141.7387  166.5794 C.ar    1  UNL1        0.0181
      5 C         140.6958  142.7042  167.4481 C.ar    1  UNL1        0.0082
      6 C         141.0497  142.8384  168.8996 C.ar    1  UNL1        0.0347
      7 BR        140.2993  143.8040  169.7684 Br      1  UNL1       -0.0490
      8 C         142.1540  142.0072  169.4823 C.ar    1  UNL1        0.0082
      9 C         142.9043  141.0417  168.6136 C.ar    1  UNL1        0.0197
     10 C         142.5505  140.9074  167.1622 C.ar    1  UNL1        0.0844
     11 N         143.3008  139.9419  166.2934 N.ar    1  UNL1       -0.2119
     12 C         142.9469  139.8077  164.8419 C.ar    1  UNL1        0.2211
     13 O         143.6973  138.8422  163.9732 O.3     1  UNL1       -0.4563
     14 C         145.0338  139.4718  163.7140 C.3     1  UNL1        0.2542
     15 C         142.3012  141.2187  161.7685 C.ar    1  UNL1        0.0245
     16 C         142.4284  142.7127  161.8118 C.ar    1  UNL1        0.0200
     17 C         143.2409  143.4267  160.7726 C.ar    1  UNL1        0.1019
     18 N         143.9262  142.6468  159.6900 N.ar    1  UNL1       -0.2076
     19 C         143.7990  141.1528  159.6466 C.ar    1  UNL1        0.2598
     20 C         142.9865  140.4388  160.6859 C.ar    1  UNL1        0.1879
     21 O         144.4843  140.3728  158.5641 O.3     1  UNL1       -0.4541
     22 C         144.0511  140.5310  157.1368 C.3     1  UNL1        0.2543
     23 O         142.8593  138.9448  160.6426 O.3     1  UNL1       -0.4670
     24 C         142.0929  138.2892  159.5322 C.3     1  UNL1        0.2527
     25 C         140.3223  139.6564  162.3955 C.3     1  UNL1        0.1162
     26 O         141.0535  138.4290  162.8525 O.3     1  UNL1       -0.3820
     27 H         140.4999  137.6473  162.6997 H       1  UNL1        0.2107
     28 C         138.6220  142.3414  160.0186 C.ar    1  UNL1        0.2271
     29 C         139.3531  141.1140  160.4755 C.ar    1  UNL1        0.0559
     30 C         139.5912  140.8839  161.9385 C.ar    1  UNL1        0.0117
     31 C         139.0980  141.8812  162.9445 C.ar    1  UNL1        0.0559
     32 C         138.3669  143.1087  162.4875 C.ar    1  UNL1        0.2270
     33 N         138.1289  143.3387  161.0246 N.ar    1  UNL1       -0.1767
     34 O         138.3840  142.5715  158.5555 O.3     1  UNL1       -0.4602
     35 C         140.2671  144.3372  158.2623 C.3     1  UNL1        0.0512
     36 C         139.4508  143.2052  157.7127 C.3     1  UNL1        0.2072
     37 O         137.8738  144.1060  163.4936 O.3     1  UNL1       -0.4640
     38 C         138.8316  144.7240  164.4687 C.3     1  UNL1        0.1678
     39 C         138.3766  145.0560  165.8589 C.3     1  UNL1        0.0473
     40 C         140.2444  145.0098  164.0535 C.3     1  UNL1        0.0473
     41 C         139.1559  138.8082  161.9833 C.3     1  UNL1        0.0491
     42 C         138.1818  138.3203  163.0145 C.3     1  UNL1        0.0750
     43 N         138.5275  138.4041  164.4717 N.3     1  UNL1       -0.2702
     44 C         139.2862  137.2890  165.1279 C.3     1  UNL1        0.0897
     45 C         138.1144  139.6032  165.2727 C.3     1  UNL1        0.0897
@<TRIPOS>BOND
     1    35    36    1
     2    36    34    1
     3    34    28    1
     4    28    29   ar
     5    29    30   ar
     6    30    25    1
     7    25    26    1
     8    25    41    1
     9    41    42    1
    10    42    43    1
    11    43    44    1
    12    43    45    1
    13    25     1    1
    14     1     2    1
    15     2     3   ar
    16     3     4   ar
    17     4     5   ar
    18     5     6   ar
    19     6     7    1
    20     6     8   ar
    21     8     9   ar
    22     9    10   ar
    23    10    11   ar
    24    11    12   ar
    25    12    13    1
    26    13    14    1
    27     1    15    1
    28    15    16   ar
    29    16    17   ar
    30    17    18   ar
    31    18    19   ar
    32    19    21    1
    33    21    22    1
    34    19    20   ar
    35    20    23    1
    36    23    24    1
    37    30    31   ar
    38    31    32   ar
    39    32    37    1
    40    37    38    1
    41    38    39    1
    42    38    40    1
    43    32    33   ar
    44    33    28   ar
    45    12     2   ar
    46    20    15   ar
    47    10     4   ar
    48    26    27    1
@<TRIPOS>MOLECULE
*****
 45 48 0 0 0
SMALL
GASTEIGER

@<TRIPOS>ATOM
      1 C         140.3346  141.4269  161.4890 C.3     1  UNL1        0.0808
      2 C         140.0637  141.0129  162.9051 C.ar    1  UNL1        0.0375
      3 C         141.0947  141.2547  163.9674 C.ar    1  UNL1        0.0023
      4 C         140.8239  140.8408  165.3835 C.ar    1  UNL1        0.0181
      5 C         141.8549  141.0826  166.4458 C.ar    1  UNL1        0.0082
      6 C         141.5840  140.6686  167.8619 C.ar    1  UNL1        0.0347
      7 BR        142.6150  140.9105  168.9243 Br      1  UNL1       -0.0490
      8 C         140.2822  140.0128  168.2157 C.ar    1  UNL1        0.0082
      9 C         139.2512  139.7709  167.1533 C.ar    1  UNL1        0.0197
     10 C         139.5221  140.1849  165.7373 C.ar    1  UNL1        0.0844
     11 N         138.4911  139.9431  164.6749 N.ar    1  UNL1       -0.2119
     12 C         138.7619  140.3570  163.2588 C.ar    1  UNL1        0.2211
     13 O         137.7309  140.1152  162.1965 O.3     1  UNL1       -0.4563
     14 C         137.7566  138.6405  161.9236 C.3     1  UNL1        0.2542
     15 C         140.5714  140.3857  160.4354 C.ar    1  UNL1        0.0245
     16 C         141.7440  139.4573  160.5487 C.ar    1  UNL1        0.0200
     17 C         141.9808  138.4161  159.4951 C.ar    1  UNL1        0.1019
     18 N         141.0449  138.3034  158.3283 N.ar    1  UNL1       -0.2076
     19 C         139.8722  139.2319  158.2151 C.ar    1  UNL1        0.2598
     20 C         139.6355  140.2731  159.2687 C.ar    1  UNL1        0.1879
     21 O         138.9363  139.1193  157.0483 O.3     1  UNL1       -0.4541
     22 C         139.3194  138.2928  155.8567 C.3     1  UNL1        0.2543
     23 O         138.4628  141.2015  159.1555 O.3     1  UNL1       -0.4670
     24 C         138.4596  142.2824  158.1153 C.3     1  UNL1        0.2527
     25 C         140.3687  142.8820  161.1265 C.3     1  UNL1        0.1162
     26 O         138.9210  143.0085  161.4983 O.3     1  UNL1       -0.3820
     27 H         138.6298  143.9230  161.3575 H       1  UNL1        0.2107
     28 C         143.6740  142.6672  158.9404 C.ar    1  UNL1        0.2271
     29 C         142.2263  142.7938  159.3123 C.ar    1  UNL1        0.0559
     30 C         141.8164  142.7554  160.7546 C.ar    1  UNL1        0.0117
     31 C         142.8540  142.5905  161.8251 C.ar    1  UNL1        0.0559
     32 C         144.3017  142.4640  161.4532 C.ar    1  UNL1        0.2270
     33 N         144.7117  142.5023  160.0109 N.ar    1  UNL1       -0.1767
     34 O         144.0839  142.7056  157.4979 O.3     1  UNL1       -0.4602
     35 C         146.5827  142.3988  156.8563 C.3     1  UNL1        0.0512
     36 C         145.2027  141.8322  157.0128 C.3     1  UNL1        0.2072
     37 O         145.3394  142.2991  162.5238 O.3     1  UNL1       -0.4640
     38 C         144.9297  141.8982  163.9099 C.3     1  UNL1        0.1678
     39 C         144.8011  140.4462  164.2636 C.3     1  UNL1        0.0473
     40 C         144.6487  142.9494  164.9425 C.3     1  UNL1        0.0473
     41 C         140.4028  144.3371  160.7640 C.3     1  UNL1        0.0491
     42 C         140.0249  145.3726  161.7814 C.3     1  UNL1        0.0750
     43 N         140.4082  145.1858  163.2196 N.3     1  UNL1       -0.2702
     44 C         139.3667  144.8066  164.2302 C.3     1  UNL1        0.0897
     45 C         141.8332  145.3782  163.6470 C.3     1  UNL1        0.0897
@<TRIPOS>BOND
     1    35    36    1
     2    36    34    1
     3    34    28    1
     4    28    29   ar
     5    29    30   ar
     6    30    25    1
     7    25    26    1
     8    25    41    1
     9    41    42    1
    10    42    43    1
    11    43    44    1
    12    43    45    1
    13    25     1    1
    14     1     2    1
    15     2     3   ar
    16     3     4   ar
    17     4     5   ar
    18     5     6   ar
    19     6     7    1
    20     6     8   ar
    21     8     9   ar
    22     9    10   ar
    23    10    11   ar
    24    11    12   ar
    25    12    13    1
    26    13    14    1
    27     1    15    1
    28    15    16   ar
    29    16    17   ar
    30    17    18   ar
    31    18    19   ar
    32    19    21    1
    33    21    22    1
    34    19    20   ar
    35    20    23    1
    36    23    24    1
    37    30    31   ar
    38    31    32   ar
    39    32    37    1
    40    37    38    1
    41    38    39    1
    42    38    40    1
    43    32    33   ar
    44    33    28   ar
    45    12     2   ar
    46    20    15   ar
    47    10     4   ar
    48    26    27    1
@<TRIPOS>MOLECULE
*****
 45 48 0 0 0
SMALL
GASTEIGER

@<TRIPOS>ATOM
      1 C         141.6274  141.8420  162.5148 C.3     1  UNL1        0.0808
      2 C         142.0684  141.9545  163.9441 C.ar    1  UNL1        0.0375
      3 C         141.3481  141.1881  165.0137 C.ar    1  UNL1        0.0023
      4 C         141.7890  141.3005  166.4430 C.ar    1  UNL1        0.0181
      5 C         141.0687  140.5341  167.5125 C.ar    1  UNL1        0.0082
      6 C         141.5097  140.6466  168.9419 C.ar    1  UNL1        0.0347
      7 BR        140.7894  139.8802  170.0114 Br      1  UNL1       -0.0490
      8 C         142.6708  141.5253  169.3016 C.ar    1  UNL1        0.0082
      9 C         143.3911  142.2917  168.2321 C.ar    1  UNL1        0.0197
     10 C         142.9502  142.1793  166.8028 C.ar    1  UNL1        0.0844
     11 N         143.6705  142.9457  165.7332 N.ar    1  UNL1       -0.2119
     12 C         143.2295  142.8332  164.3039 C.ar    1  UNL1        0.2211
     13 O         143.9498  143.5996  163.2343 O.3     1  UNL1       -0.4563
     14 C         143.8259  145.0470  163.6082 C.3     1  UNL1        0.2542
     15 C         142.4573  141.0700  161.5324 C.ar    1  UNL1        0.0245
     16 C         142.6821  139.6004  161.7320 C.ar    1  UNL1        0.0200
     17 C         143.5120  138.8284  160.7496 C.ar    1  UNL1        0.1019
     18 N         144.1172  139.5259  159.5675 N.ar    1  UNL1       -0.2076
     19 C         143.8925  140.9955  159.3679 C.ar    1  UNL1        0.2598
     20 C         143.0625  141.7675  160.3504 C.ar    1  UNL1        0.1879
     21 O         144.4977  141.6930  158.1859 O.3     1  UNL1       -0.4541
     22 C         144.9072  140.9036  156.9780 C.3     1  UNL1        0.2543
     23 O         142.8378  143.2371  160.1508 O.3     1  UNL1       -0.4670
     24 C         141.9331  143.7153  159.0539 C.3     1  UNL1        0.2527
     25 C         140.3565  142.5017  162.0679 C.3     1  UNL1        0.1162
     26 O         140.9058  143.8365  162.4762 O.3     1  UNL1       -0.3820
     27 H         140.2493  144.5264  162.2918 H       1  UNL1        0.2107
     28 C         138.9413  138.8008  162.2932 C.ar    1  UNL1        0.2271
     29 C         139.4906  140.1356  162.7016 C.ar    1  UNL1        0.0559
     30 C         139.8073  141.1669  161.6595 C.ar    1  UNL1        0.0117
     31 C         139.5749  140.8635  160.2091 C.ar    1  UNL1        0.0559
     32 C         139.0257  139.5287  159.8007 C.ar    1  UNL1        0.2270
     33 N         138.7089  138.4974  160.8428 N.ar    1  UNL1       -0.1767
     34 O         138.6246  137.7695  163.3354 O.3     1  UNL1       -0.4602
     35 C         138.3993  138.4070  165.8439 C.3     1  UNL1        0.0512
     36 C         139.2230  137.8803  164.7064 C.3     1  UNL1        0.2072
     37 O         138.7932  139.2253  158.3501 O.3     1  UNL1       -0.4640
     38 C         139.9258  138.7403  157.4945 C.3     1  UNL1        0.1678
     39 C         139.8192  137.4228  156.7854 C.3     1  UNL1        0.0473
     40 C         141.1650  139.5728  157.3481 C.3     1  UNL1        0.0473
     41 C         139.0857  143.1614  161.6210 C.3     1  UNL1        0.0491
     42 C         138.3508  144.0809  162.5508 C.3     1  UNL1        0.0750
     43 N         138.3156  143.7889  164.0217 N.3     1  UNL1       -0.2702
     44 C         137.7122  142.5084  164.5179 C.3     1  UNL1        0.0897
     45 C         138.8838  144.7775  164.9964 C.3     1  UNL1        0.0897
@<TRIPOS>BOND
     1    35    36    1
     2    36    34    1
     3    34    28    1
     4    28    29   ar
     5    29    30   ar
     6    30    25    1
     7    25    26    1
     8    25    41    1
     9    41    42    1
    10    42    43    1
    11    43    44    1
    12    43    45    1
    13    25     1    1
    14     1     2    1
    15     2     3   ar
    16     3     4   ar
    17     4     5   ar
    18     5     6   ar
    19     6     7    1
    20     6     8   ar
    21     8     9   ar
    22     9    10   ar
    23    10    11   ar
    24    11    12   ar
    25    12    13    1
    26    13    14    1
    27     1    15    1
    28    15    16   ar
    29    16    17   ar
    30    17    18   ar
    31    18    19   ar
    32    19    21    1
    33    21    22    1
    34    19    20   ar
    35    20    23    1
    36    23    24    1
    37    30    31   ar
    38    31    32   ar
    39    32    37    1
    40    37    38    1
    41    38    39    1
    42    38    40    1
    43    32    33   ar
    44    33    28   ar
    45    12     2   ar
    46    20    15   ar
    47    10     4   ar
    48    26    27    1
@<TRIPOS>MOLECULE
*****
 45 48 0 0 0
SMALL
GASTEIGER

@<TRIPOS>ATOM
      1 C         141.0128  141.5062  158.7345 C.3     1  UNL1        0.0808
      2 C         141.5753  142.3276  159.8566 C.ar    1  UNL1        0.0375
      3 C         141.7439  141.7217  161.2183 C.ar    1  UNL1        0.0023
      4 C         142.3064  142.5431  162.3403 C.ar    1  UNL1        0.0181
      5 C         142.4750  141.9371  163.7021 C.ar    1  UNL1        0.0082
      6 C         143.0375  142.7586  164.8241 C.ar    1  UNL1        0.0347
      7 BR        143.2061  142.1526  166.1858 Br      1  UNL1       -0.0490
      8 C         143.4313  144.1859  164.5843 C.ar    1  UNL1        0.0082
      9 C         143.2627  144.7919  163.2226 C.ar    1  UNL1        0.0197
     10 C         142.7002  143.9705  162.1006 C.ar    1  UNL1        0.0844
     11 N         142.5316  144.5765  160.7388 N.ar    1  UNL1       -0.2119
     12 C         141.9691  143.7550  159.6168 C.ar    1  UNL1        0.2211
     13 O         141.8005  144.3609  158.2550 O.3     1  UNL1       -0.4563
     14 C         140.7986  145.4656  158.4153 C.3     1  UNL1        0.2542
     15 C         141.7496  140.2923  158.2512 C.ar    1  UNL1        0.0245
     16 C         141.2452  138.9222  158.5954 C.ar    1  UNL1        0.0200
     17 C         141.9820  137.7084  158.1121 C.ar    1  UNL1        0.1019
     18 N         143.2233  137.8645  157.2845 N.ar    1  UNL1       -0.2076
     19 C         143.7277  139.2346  156.9403 C.ar    1  UNL1        0.2598
     20 C         142.9908  140.4485  157.4236 C.ar    1  UNL1        0.1879
     21 O         144.9689  139.3908  156.1127 O.3     1  UNL1       -0.4541
     22 C         144.9091  139.1952  154.6268 C.3     1  UNL1        0.2543
     23 O         143.4953  141.8185  157.0794 O.3     1  UNL1       -0.4670
     24 C         144.7442  142.3420  157.7248 C.3     1  UNL1        0.2527
     25 C         139.7136  141.8986  158.0959 C.3     1  UNL1        0.1162
     26 O         140.4153  142.0859  156.7834 O.3     1  UNL1       -0.3820
     27 H         139.7744  142.3656  156.1112 H       1  UNL1        0.2107
     28 C         137.8987  140.1507  161.1620 C.ar    1  UNL1        0.2271
     29 C         138.6004  140.3380  159.8495 C.ar    1  UNL1        0.0559
     30 C         139.0119  141.7113  159.4083 C.ar    1  UNL1        0.0117
     31 C         138.7216  142.8973  160.2796 C.ar    1  UNL1        0.0559
     32 C         138.0199  142.7100  161.5921 C.ar    1  UNL1        0.2270
     33 N         137.6085  141.3367  162.0332 N.ar    1  UNL1       -0.1767
     34 O         137.4872  138.7773  161.6032 O.3     1  UNL1       -0.4602
     35 C         139.8757  137.9801  162.2431 C.3     1  UNL1        0.0512
     36 C         138.3949  137.9684  162.4817 C.3     1  UNL1        0.2072
     37 O         137.7297  143.8961  162.4633 O.3     1  UNL1       -0.4640
     38 C         138.8588  144.7094  163.0235 C.3     1  UNL1        0.1678
     39 C         139.4830  145.7948  162.1976 C.3     1  UNL1        0.0473
     40 C         139.3637  144.4372  164.4095 C.3     1  UNL1        0.0473
     41 C         138.4143  142.2911  157.4572 C.3     1  UNL1        0.0491
     42 C         137.6048  141.2695  156.7147 C.3     1  UNL1        0.0750
     43 N         138.1858  140.5785  155.5168 N.3     1  UNL1       -0.2702
     44 C         138.8042  139.2196  155.6615 C.3     1  UNL1        0.0897
     45 C         138.1485  141.2465  154.1743 C.3     1  UNL1        0.0897
@<TRIPOS>BOND
     1    35    36    1
     2    36    34    1
     3    34    28    1
     4    28    29   ar
     5    29    30   ar
     6    30    25    1
     7    25    26    1
     8    25    41    1
     9    41    42    1
    10    42    43    1
    11    43    44    1
    12    43    45    1
    13    25     1    1
    14     1     2    1
    15     2     3   ar
    16     3     4   ar
    17     4     5   ar
    18     5     6   ar
    19     6     7    1
    20     6     8   ar
    21     8     9   ar
    22     9    10   ar
    23    10    11   ar
    24    11    12   ar
    25    12    13    1
    26    13    14    1
    27     1    15    1
    28    15    16   ar
    29    16    17   ar
    30    17    18   ar
    31    18    19   ar
    32    19    21    1
    33    21    22    1
    34    19    20   ar
    35    20    23    1
    36    23    24    1
    37    30    31   ar
    38    31    32   ar
    39    32    37    1
    40    37    38    1
    41    38    39    1
    42    38    40    1
    43    32    33   ar
    44    33    28   ar
    45    12     2   ar
    46    20    15   ar
    47    10     4   ar
    48    26    27    1
@<TRIPOS>MOLECULE
*****
 45 48 0 0 0
SMALL
GASTEIGER

@<TRIPOS>ATOM
      1 C         141.5408  140.4601  161.0857 C.3     1  UNL1        0.0808
      2 C         141.8774  140.1145  162.5060 C.ar    1  UNL1        0.0375
      3 C         141.6388  141.1147  163.5981 C.ar    1  UNL1        0.0023
      4 C         141.9754  140.7691  165.0184 C.ar    1  UNL1        0.0181
      5 C         141.7367  141.7693  166.1104 C.ar    1  UNL1        0.0082
      6 C         142.0733  141.4236  167.5307 C.ar    1  UNL1        0.0347
      7 BR        141.8347  142.4239  168.6228 Br      1  UNL1       -0.0490
      8 C         142.6486  140.0778  167.8590 C.ar    1  UNL1        0.0082
      9 C         142.8872  139.0776  166.7669 C.ar    1  UNL1        0.0197
     10 C         142.5507  139.4232  165.3466 C.ar    1  UNL1        0.0844
     11 N         142.7893  138.4230  164.2546 N.ar    1  UNL1       -0.2119
     12 C         142.4527  138.7686  162.8342 C.ar    1  UNL1        0.2211
     13 O         142.6914  137.7684  161.7422 O.3     1  UNL1       -0.4563
     14 C         144.1661  137.7979  161.4696 C.3     1  UNL1        0.2542
     15 C         142.6087  140.9719  160.1651 C.ar    1  UNL1        0.0245
     16 C         143.2840  142.2799  160.4535 C.ar    1  UNL1        0.0200
     17 C         144.3519  142.7917  159.5328 C.ar    1  UNL1        0.1019
     18 N         144.7446  141.9955  158.3237 N.ar    1  UNL1       -0.2076
     19 C         144.0693  140.6875  158.0353 C.ar    1  UNL1        0.2598
     20 C         143.0013  140.1757  158.9560 C.ar    1  UNL1        0.1879
     21 O         144.4619  139.8913  156.8262 O.3     1  UNL1       -0.4541
     22 C         145.4619  140.4458  155.8554 C.3     1  UNL1        0.2543
     23 O         142.3261  138.8677  158.6676 O.3     1  UNL1       -0.4670
     24 C         141.3803  138.7514  157.5091 C.3     1  UNL1        0.2527
     25 C         140.1363  140.2940  160.5861 C.3     1  UNL1        0.1162
     26 O         140.2421  138.8106  160.7818 O.3     1  UNL1       -0.3820
     27 H         139.4086  138.3896  160.5194 H       1  UNL1        0.2107
     28 C         140.0057  143.8429  158.8145 C.ar    1  UNL1        0.2271
     29 C         140.1115  142.3595  159.0103 C.ar    1  UNL1        0.0559
     30 C         140.0304  141.7774  160.3903 C.ar    1  UNL1        0.0117
     31 C         139.8435  142.6788  161.5746 C.ar    1  UNL1        0.0559
     32 C         139.7377  144.1622  161.3789 C.ar    1  UNL1        0.2270
     33 N         139.8188  144.7442  159.9988 N.ar    1  UNL1       -0.1767
     34 O         140.0867  144.4249  157.4344 O.3     1  UNL1       -0.4602
     35 C         142.1644  145.9803  157.3168 C.3     1  UNL1        0.0512
     36 C         140.6795  145.7874  157.2286 C.3     1  UNL1        0.2072
     37 O         139.5508  145.0635  162.5633 O.3     1  UNL1       -0.4640
     38 C         140.2487  144.7584  163.8554 C.3     1  UNL1        0.1678
     39 C         139.4513  144.3708  165.0653 C.3     1  UNL1        0.0473
     40 C         141.7443  144.8409  163.9378 C.3     1  UNL1        0.0473
     41 C         138.7317  140.1279  160.0865 C.3     1  UNL1        0.0491
     42 C         137.6524  139.6688  161.0216 C.3     1  UNL1        0.0750
     43 N         137.7884  139.9035  162.4969 N.3     1  UNL1       -0.2702
     44 C         137.3028  141.1883  163.0998 C.3     1  UNL1        0.0897
     45 C         138.4101  138.8534  163.3692 C.3     1  UNL1        0.0897
@<TRIPOS>BOND
     1    35    36    1
     2    36    34    1
     3    34    28    1
     4    28    29   ar
     5    29    30   ar
     6    30    25    1
     7    25    26    1
     8    25    41    1
     9    41    42    1
    10    42    43    1
    11    43    44    1
    12    43    45    1
    13    25     1    1
    14     1     2    1
    15     2     3   ar
    16     3     4   ar
    17     4     5   ar
    18     5     6   ar
    19     6     7    1
    20     6     8   ar
    21     8     9   ar
    22     9    10   ar
    23    10    11   ar
    24    11    12   ar
    25    12    13    1
    26    13    14    1
    27     1    15    1
    28    15    16   ar
    29    16    17   ar
    30    17    18   ar
    31    18    19   ar
    32    19    21    1
    33    21    22    1
    34    19    20   ar
    35    20    23    1
    36    23    24    1
    37    30    31   ar
    38    31    32   ar
    39    32    37    1
    40    37    38    1
    41    38    39    1
    42    38    40    1
    43    32    33   ar
    44    33    28   ar
    45    12     2   ar
    46    20    15   ar
    47    10     4   ar
    48    26    27    1
@<TRIPOS>MOLECULE
*****
 45 48 0 0 0
SMALL
GASTEIGER

@<TRIPOS>ATOM
      1 C         140.7654  141.3393  158.9486 C.3     1  UNL1        0.0808
      2 C         141.3425  142.2789  159.9656 C.ar    1  UNL1        0.0375
      3 C         141.7328  141.7692  161.3213 C.ar    1  UNL1        0.0023
      4 C         142.3098  142.7087  162.3382 C.ar    1  UNL1        0.0181
      5 C         142.7001  142.1990  163.6939 C.ar    1  UNL1        0.0082
      6 C         143.2772  143.1387  164.7109 C.ar    1  UNL1        0.0347
      7 BR        143.6675  142.6290  166.0666 Br      1  UNL1       -0.0490
      8 C         143.4640  144.5879  164.3721 C.ar    1  UNL1        0.0082
      9 C         143.0737  145.0976  163.0164 C.ar    1  UNL1        0.0197
     10 C         142.4966  144.1581  161.9995 C.ar    1  UNL1        0.0844
     11 N         142.1063  144.6678  160.6438 N.ar    1  UNL1       -0.2119
     12 C         141.5293  143.7281  159.6268 C.ar    1  UNL1        0.2211
     13 O         141.1390  144.2378  158.2712 O.3     1  UNL1       -0.4563
     14 C         141.8032  145.5748  158.1252 C.3     1  UNL1        0.2542
     15 C         141.5863  140.1938  158.4349 C.ar    1  UNL1        0.0245
     16 C         141.2516  138.7894  158.8417 C.ar    1  UNL1        0.0200
     17 C         142.0725  137.6439  158.3280 C.ar    1  UNL1        0.1019
     18 N         143.2282  137.9028  157.4074 N.ar    1  UNL1       -0.2076
     19 C         143.5629  139.3073  157.0006 C.ar    1  UNL1        0.2598
     20 C         142.7419  140.4528  157.5143 C.ar    1  UNL1        0.1879
     21 O         144.7185  139.5662  156.0800 O.3     1  UNL1       -0.4541
     22 C         144.5530  139.3875  154.6000 C.3     1  UNL1        0.2543
     23 O         143.0766  141.8572  157.1075 O.3     1  UNL1       -0.4670
     24 C         144.2930  142.5313  157.6698 C.3     1  UNL1        0.2527
     25 C         139.3674  141.5452  158.4454 C.3     1  UNL1        0.1162
     26 O         139.8939  141.7112  157.0507 O.3     1  UNL1       -0.3820
     27 H         139.1551  141.8726  156.4432 H       1  UNL1        0.2107
     28 C         137.9234  142.4185  162.0373 C.ar    1  UNL1        0.2271
     29 C         138.4499  142.5845  160.6426 C.ar    1  UNL1        0.0559
     30 C         138.8410  141.3792  159.8401 C.ar    1  UNL1        0.0117
     31 C         138.7055  140.0077  160.4323 C.ar    1  UNL1        0.0559
     32 C         138.1790  139.8417  161.8271 C.ar    1  UNL1        0.2270
     33 N         137.7880  141.0471  162.6296 N.ar    1  UNL1       -0.1767
     34 O         137.5324  143.6240  162.8399 O.3     1  UNL1       -0.4602
     35 C         139.4788  144.6424  164.2271 C.3     1  UNL1        0.0512
     36 C         138.5249  144.7244  163.0724 C.3     1  UNL1        0.2072
     37 O         138.0436  138.4701  162.4193 O.3     1  UNL1       -0.4640
     38 C         139.1421  137.9103  163.2736 C.3     1  UNL1        0.1678
     39 C         138.9069  137.6701  164.7354 C.3     1  UNL1        0.0473
     40 C         140.4758  137.5907  162.6660 C.3     1  UNL1        0.0473
     41 C         137.9694  141.7511  157.9422 C.3     1  UNL1        0.0491
     42 C         137.4845  140.9915  156.7430 C.3     1  UNL1        0.0750
     43 N         136.2317  141.4217  156.0391 N.3     1  UNL1       -0.2702
     44 C         134.9781  140.6094  156.1756 C.3     1  UNL1        0.0897
     45 C         136.2326  142.6641  155.1986 C.3     1  UNL1        0.0897
@<TRIPOS>BOND
     1    35    36    1
     2    36    34    1
     3    34    28    1
     4    28    29   ar
     5    29    30   ar
     6    30    25    1
     7    25    26    1
     8    25    41    1
     9    41    42    1
    10    42    43    1
    11    43    44    1
    12    43    45    1
    13    25     1    1
    14     1     2    1
    15     2     3   ar
    16     3     4   ar
    17     4     5   ar
    18     5     6   ar
    19     6     7    1
    20     6     8   ar
    21     8     9   ar
    22     9    10   ar
    23    10    11   ar
    24    11    12   ar
    25    12    13    1
    26    13    14    1
    27     1    15    1
    28    15    16   ar
    29    16    17   ar
    30    17    18   ar
    31    18    19   ar
    32    19    21    1
    33    21    22    1
    34    19    20   ar
    35    20    23    1
    36    23    24    1
    37    30    31   ar
    38    31    32   ar
    39    32    37    1
    40    37    38    1
    41    38    39    1
    42    38    40    1
    43    32    33   ar
    44    33    28   ar
    45    12     2   ar
    46    20    15   ar
    47    10     4   ar
    48    26    27    1
