@<TRIPOS>MOLECULE
*****
 28 31 0 0 0
SMALL
GASTEIGER

@<TRIPOS>ATOM
      1 C         140.9847  141.6421  165.3982 C.ar    1  UNL1        0.0735
      2 C         140.9249  142.1181  166.8194 C.ar    1  UNL1        0.1655
      3 O         140.0163  143.3105  166.8709 O.2     1  UNL1       -0.4519
      4 C         139.5146  143.5714  165.4816 C.ar    1  UNL1        0.1454
      5 C         138.5901  144.6147  164.9278 C.ar    1  UNL1        0.0406
      6 C         138.2642  144.6269  163.4637 C.ar    1  UNL1        0.0395
      7 C         138.8627  143.5958  162.5534 C.ar    1  UNL1        0.1311
      8 O         138.5367  143.6080  161.0893 O.3     1  UNL1       -0.5058
      9 C         139.7872  142.5525  163.1073 C.ar    1  UNL1        0.0307
     10 C         140.1132  142.5403  164.5714 C.ar    1  UNL1        0.0406
     11 H         137.9592  144.2597  160.7433 H       1  UNL1        0.2922
     12 C         141.6469  141.5087  167.9844 C.ar    1  UNL1        0.1160
     13 C         142.7777  142.2480  168.6360 C.ar    1  UNL1        0.0254
     14 C         143.4997  141.6387  169.8011 C.ar    1  UNL1        0.0399
     15 C         143.0908  140.2900  170.3146 C.ar    1  UNL1        0.1528
     16 O         143.8128  139.6806  171.4797 O.3     1  UNL1       -0.5039
     17 C         141.9600  139.5506  169.6631 C.ar    1  UNL1        0.1354
     18 N         141.2380  140.1600  168.4980 N.ar    1  UNL1       -0.2376
     19 H         144.5192  140.1424  171.8867 H       1  UNL1        0.2923
     20 C         141.2189  139.0851  165.0017 C.3     1  UNL1        0.0774
     21 C         141.7771  140.4732  164.8925 C.2     1  UNL1        0.1766
     22 O         143.1276  140.6921  164.2776 O.2     1  UNL1       -0.2912
     23 C         140.3858  141.5214  162.1971 C.3     1  UNL1        0.1023
     24 N         139.6594  140.2340  161.9418 N.3     1  UNL1       -0.2689
     25 C         138.3474  139.8275  162.5445 C.3     1  UNL1        0.0724
     26 C         137.9946  138.4693  162.0141 C.3     1  UNL1        0.0188
     27 C         139.0888  138.0365  161.0837 C.3     1  UNL1        0.0188
     28 C         140.1177  139.1271  161.0390 C.3     1  UNL1        0.0724
@<TRIPOS>BOND
     1    20    21    1
     2    21    22    2
     3    21     1    1
     4     1     2   ar
     5     2    12    1
     6    12    13   ar
     7    13    14   ar
     8    14    15   ar
     9    15    16    1
    10    15    17   ar
    11    17    18   ar
    12     2     3   ar
    13     3     4   ar
    14     4     5   ar
    15     5     6   ar
    16     6     7   ar
    17     7     8    1
    18     7     9   ar
    19     9    23    1
    20    23    24    1
    21    24    25    1
    22    25    26    1
    23    26    27    1
    24    27    28    1
    25     9    10   ar
    26    10     1   ar
    27    18    12   ar
    28    10     4   ar
    29    28    24    1
    30    16    19    1
    31     8    11    1
@<TRIPOS>MOLECULE
*****
 28 31 0 0 0
SMALL
GASTEIGER

@<TRIPOS>ATOM
      1 C         139.5800  141.3961  165.9285 C.ar    1  UNL1        0.0735
      2 C         140.1281  142.2804  167.0091 C.ar    1  UNL1        0.1655
      3 O         139.9803  143.7045  166.5621 O.2     1  UNL1       -0.4519
      4 C         139.3409  143.7005  165.2052 C.ar    1  UNL1        0.1454
      5 C         138.9520  144.8116  164.2756 C.ar    1  UNL1        0.0406
      6 C         138.3156  144.4960  162.9545 C.ar    1  UNL1        0.0395
      7 C         138.0682  143.0693  162.5629 C.ar    1  UNL1        0.1311
      8 O         137.4319  142.7537  161.2417 O.3     1  UNL1       -0.5058
      9 C         138.4572  141.9582  163.4925 C.ar    1  UNL1        0.0307
     10 C         139.0935  142.2738  164.8136 C.ar    1  UNL1        0.0406
     11 H         137.1889  143.4478  160.6610 H       1  UNL1        0.2922
     12 C         140.7200  141.8211  168.3086 C.ar    1  UNL1        0.1160
     13 C         142.1818  142.0207  168.5790 C.ar    1  UNL1        0.0254
     14 C         142.7738  141.5614  169.8785 C.ar    1  UNL1        0.0399
     15 C         141.9039  140.9025  170.9076 C.ar    1  UNL1        0.1528
     16 O         142.4958  140.4432  172.2071 O.3     1  UNL1       -0.5039
     17 C         140.4421  140.7028  170.6372 C.ar    1  UNL1        0.1354
     18 N         139.8501  141.1621  169.3377 N.ar    1  UNL1       -0.2376
     19 H         143.4090  140.5679  172.3760 H       1  UNL1        0.2923
     20 C         138.2547  139.1985  166.3341 C.3     1  UNL1        0.0774
     21 C         139.5276  139.8973  165.9577 C.2     1  UNL1        0.1766
     22 O         140.7479  139.0973  165.6104 O.2     1  UNL1       -0.2912
     23 C         138.2098  140.5315  163.1009 C.3     1  UNL1        0.1023
     24 N         139.3441  139.6803  162.6125 N.3     1  UNL1       -0.2689
     25 C         139.3495  138.1828  162.5270 C.3     1  UNL1        0.0724
     26 C         140.6811  137.7541  161.9854 C.3     1  UNL1        0.0188
     27 C         141.4986  138.9868  161.7361 C.3     1  UNL1        0.0188
     28 C         140.6724  140.1772  162.1236 C.3     1  UNL1        0.0724
@<TRIPOS>BOND
     1    20    21    1
     2    21    22    2
     3    21     1    1
     4     1     2   ar
     5     2    12    1
     6    12    13   ar
     7    13    14   ar
     8    14    15   ar
     9    15    16    1
    10    15    17   ar
    11    17    18   ar
    12     2     3   ar
    13     3     4   ar
    14     4     5   ar
    15     5     6   ar
    16     6     7   ar
    17     7     8    1
    18     7     9   ar
    19     9    23    1
    20    23    24    1
    21    24    25    1
    22    25    26    1
    23    26    27    1
    24    27    28    1
    25     9    10   ar
    26    10     1   ar
    27    18    12   ar
    28    10     4   ar
    29    28    24    1
    30    16    19    1
    31     8    11    1
@<TRIPOS>MOLECULE
*****
 28 31 0 0 0
SMALL
GASTEIGER

@<TRIPOS>ATOM
      1 C         141.5951  142.9699  165.5016 C.ar    1  UNL1        0.0735
      2 C         140.4807  143.0205  166.5044 C.ar    1  UNL1        0.1655
      3 O         139.3660  143.8350  165.9179 O.2     1  UNL1       -0.4519
      4 C         139.7915  144.2878  164.5526 C.ar    1  UNL1        0.1454
      5 C         139.1024  145.1179  163.5105 C.ar    1  UNL1        0.0406
      6 C         139.7910  145.4134  162.2111 C.ar    1  UNL1        0.0395
      7 C         141.1687  144.8788  161.9539 C.ar    1  UNL1        0.1311
      8 O         141.8573  145.1743  160.6544 O.3     1  UNL1       -0.5058
      9 C         141.8578  144.0487  162.9960 C.ar    1  UNL1        0.0307
     10 C         141.1692  143.7532  164.2954 C.ar    1  UNL1        0.0406
     11 H         141.4269  145.6928  160.0034 H       1  UNL1        0.2922
     12 C         140.4809  142.3706  167.8563 C.ar    1  UNL1        0.1160
     13 C         140.5961  143.2118  169.0928 C.ar    1  UNL1        0.0254
     14 C         140.5963  142.5620  170.4448 C.ar    1  UNL1        0.0399
     15 C         140.4814  141.0709  170.5602 C.ar    1  UNL1        0.1528
     16 O         140.4817  140.4210  171.9121 O.3     1  UNL1       -0.5039
     17 C         140.3663  140.2296  169.3236 C.ar    1  UNL1        0.1354
     18 N         140.3661  140.8795  167.9717 N.ar    1  UNL1       -0.2376
     19 H         140.5536  140.9465  172.6845 H       1  UNL1        0.2923
     20 C         142.9812  140.7724  165.5024 C.3     1  UNL1        0.0774
     21 C         142.9054  142.2607  165.6747 C.2     1  UNL1        0.1766
     22 O         144.1400  143.0394  166.0201 O.2     1  UNL1       -0.2912
     23 C         143.2355  143.5141  162.7387 C.3     1  UNL1        0.1023
     24 N         143.4153  142.1051  162.2568 N.3     1  UNL1       -0.2689
     25 C         144.7040  141.3378  162.2368 C.3     1  UNL1        0.0724
     26 C         144.4232  139.9743  161.6778 C.3     1  UNL1        0.0188
     27 C         142.9608  139.8991  161.3523 C.3     1  UNL1        0.0188
     28 C         142.3379  141.2159  161.7102 C.3     1  UNL1        0.0724
@<TRIPOS>BOND
     1    20    21    1
     2    21    22    2
     3    21     1    1
     4     1     2   ar
     5     2    12    1
     6    12    13   ar
     7    13    14   ar
     8    14    15   ar
     9    15    16    1
    10    15    17   ar
    11    17    18   ar
    12     2     3   ar
    13     3     4   ar
    14     4     5   ar
    15     5     6   ar
    16     6     7   ar
    17     7     8    1
    18     7     9   ar
    19     9    23    1
    20    23    24    1
    21    24    25    1
    22    25    26    1
    23    26    27    1
    24    27    28    1
    25     9    10   ar
    26    10     1   ar
    27    18    12   ar
    28    10     4   ar
    29    28    24    1
    30    16    19    1
    31     8    11    1
@<TRIPOS>MOLECULE
*****
 28 31 0 0 0
SMALL
GASTEIGER

@<TRIPOS>ATOM
      1 C         140.5132  139.7675  165.6917 C.ar    1  UNL1        0.0735
      2 C         141.3048  140.5003  166.7340 C.ar    1  UNL1        0.1655
      3 O         142.7534  140.4287  166.3511 O.2     1  UNL1       -0.4519
      4 C         142.8570  139.6516  165.0722 C.ar    1  UNL1        0.1454
      5 C         144.0331  139.2634  164.2262 C.ar    1  UNL1        0.0406
      6 C         143.8247  138.4665  162.9726 C.ar    1  UNL1        0.0395
      7 C         142.4402  138.0579  162.5650 C.ar    1  UNL1        0.1311
      8 O         142.2319  137.2610  161.3114 O.3     1  UNL1       -0.5058
      9 C         141.2640  138.4462  163.4111 C.ar    1  UNL1        0.0307
     10 C         141.4724  139.2430  164.6647 C.ar    1  UNL1        0.0406
     11 H         142.9666  137.0185  160.7828 H       1  UNL1        0.2922
     12 C         140.7461  141.1845  167.9462 C.ar    1  UNL1        0.1160
     13 C         140.9166  142.6649  168.1173 C.ar    1  UNL1        0.0254
     14 C         140.3578  143.3492  169.3295 C.ar    1  UNL1        0.0399
     15 C         139.6285  142.5530  170.3708 C.ar    1  UNL1        0.1528
     16 O         139.0698  143.2373  171.5830 O.3     1  UNL1       -0.5039
     17 C         139.4580  141.0726  170.1997 C.ar    1  UNL1        0.1354
     18 N         140.0168  140.3884  168.9875 N.ar    1  UNL1       -0.2376
     19 H         139.1763  144.1620  171.6899 H       1  UNL1        0.2923
     20 C         138.3997  138.4332  166.4012 C.3     1  UNL1        0.0774
     21 C         139.0237  139.5904  165.6787 C.2     1  UNL1        0.1766
     22 O         138.1582  140.5701  164.9433 O.2     1  UNL1       -0.2912
     23 C         139.8795  138.0376  163.0036 C.3     1  UNL1        0.1023
     24 N         139.0848  138.9051  162.0731 N.3     1  UNL1       -0.2689
     25 C         139.5348  140.2085  161.4826 C.3     1  UNL1        0.0724
     26 C         138.4286  140.7306  160.6143 C.3     1  UNL1        0.0188
     27 C         137.2949  139.7498  160.6683 C.3     1  UNL1        0.0188
     28 C         137.7004  138.6217  161.5698 C.3     1  UNL1        0.0724
@<TRIPOS>BOND
     1    20    21    1
     2    21    22    2
     3    21     1    1
     4     1     2   ar
     5     2    12    1
     6    12    13   ar
     7    13    14   ar
     8    14    15   ar
     9    15    16    1
    10    15    17   ar
    11    17    18   ar
    12     2     3   ar
    13     3     4   ar
    14     4     5   ar
    15     5     6   ar
    16     6     7   ar
    17     7     8    1
    18     7     9   ar
    19     9    23    1
    20    23    24    1
    21    24    25    1
    22    25    26    1
    23    26    27    1
    24    27    28    1
    25     9    10   ar
    26    10     1   ar
    27    18    12   ar
    28    10     4   ar
    29    28    24    1
    30    16    19    1
    31     8    11    1
@<TRIPOS>MOLECULE
*****
 28 31 0 0 0
SMALL
GASTEIGER

@<TRIPOS>ATOM
      1 C         139.8393  142.2513  165.4172 C.ar    1  UNL1        0.0735
      2 C         140.3703  141.4920  166.5968 C.ar    1  UNL1        0.1655
      3 O         140.0403  140.0419  166.4012 O.2     1  UNL1       -0.4519
      4 C         139.3054  139.9050  165.1007 C.ar    1  UNL1        0.1454
      5 C         138.7333  138.7133  164.3918 C.ar    1  UNL1        0.0406
      6 C         138.0369  138.8872  163.0747 C.ar    1  UNL1        0.0395
      7 C         137.9127  140.2528  162.4665 C.ar    1  UNL1        0.1311
      8 O         137.2163  140.4267  161.1494 O.3     1  UNL1       -0.5058
      9 C         138.4848  141.4444  163.1755 C.ar    1  UNL1        0.0307
     10 C         139.1812  141.2705  164.4926 C.ar    1  UNL1        0.0406
     11 H         136.8589  139.6823  160.7065 H       1  UNL1        0.2922
     12 C         141.1027  142.0796  167.7665 C.ar    1  UNL1        0.1160
     13 C         140.3695  142.9328  168.7587 C.ar    1  UNL1        0.0254
     14 C         141.1019  143.5204  169.9285 C.ar    1  UNL1        0.0399
     15 C         142.5674  143.2548  170.1061 C.ar    1  UNL1        0.1528
     16 O         143.2998  143.8424  171.2758 O.3     1  UNL1       -0.5039
     17 C         143.3006  142.4015  169.1139 C.ar    1  UNL1        0.1354
     18 N         142.5682  141.8139  167.9442 N.ar    1  UNL1       -0.2376
     19 H         142.8418  144.3754  171.8956 H       1  UNL1        0.2923
     20 C         138.8001  144.6283  165.5605 C.3     1  UNL1        0.0774
     21 C         139.9475  143.7316  165.2002 C.2     1  UNL1        0.1766
     22 O         141.2028  144.3153  164.6230 O.2     1  UNL1       -0.2912
     23 C         138.3606  142.8100  162.5673 C.3     1  UNL1        0.1023
     24 N         139.5268  143.4191  161.8469 N.3     1  UNL1       -0.2689
     25 C         140.7158  142.6788  161.3099 C.3     1  UNL1        0.0724
     26 C         141.6326  143.6777  160.6682 C.3     1  UNL1        0.0188
     27 C         141.0102  145.0353  160.8086 C.3     1  UNL1        0.0188
     28 C         139.7088  144.8755  161.5371 C.3     1  UNL1        0.0724
@<TRIPOS>BOND
     1    20    21    1
     2    21    22    2
     3    21     1    1
     4     1     2   ar
     5     2    12    1
     6    12    13   ar
     7    13    14   ar
     8    14    15   ar
     9    15    16    1
    10    15    17   ar
    11    17    18   ar
    12     2     3   ar
    13     3     4   ar
    14     4     5   ar
    15     5     6   ar
    16     6     7   ar
    17     7     8    1
    18     7     9   ar
    19     9    23    1
    20    23    24    1
    21    24    25    1
    22    25    26    1
    23    26    27    1
    24    27    28    1
    25     9    10   ar
    26    10     1   ar
    27    18    12   ar
    28    10     4   ar
    29    28    24    1
    30    16    19    1
    31     8    11    1
@<TRIPOS>MOLECULE
*****
 28 31 0 0 0
SMALL
GASTEIGER

@<TRIPOS>ATOM
      1 C         141.2921  139.6759  165.8170 C.ar    1  UNL1        0.0735
      2 C         140.1023  140.0204  166.6629 C.ar    1  UNL1        0.1655
      3 O         138.8661  139.6766  165.8860 O.2     1  UNL1       -0.4519
      4 C         139.2919  139.1197  164.5599 C.ar    1  UNL1        0.1454
      5 C         138.5080  138.6129  163.3857 C.ar    1  UNL1        0.0406
      6 C         139.2236  138.1058  162.1689 C.ar    1  UNL1        0.0395
      7 C         140.7230  138.1053  162.1262 C.ar    1  UNL1        0.1311
      8 O         141.4385  137.5981  160.9093 O.3     1  UNL1       -0.5058
      9 C         141.5068  138.6121  163.3004 C.ar    1  UNL1        0.0307
     10 C         140.7913  139.1193  164.5172 C.ar    1  UNL1        0.0406
     11 H         140.9488  137.2816  160.1758 H       1  UNL1        0.2922
     12 C         140.1417  140.6058  168.0434 C.ar    1  UNL1        0.1160
     13 C         140.3520  142.0795  168.2274 C.ar    1  UNL1        0.0254
     14 C         140.3915  142.6649  169.6078 C.ar    1  UNL1        0.0399
     15 C         140.2206  141.7766  170.8044 C.ar    1  UNL1        0.1528
     16 O         140.2601  142.3621  172.1848 O.3     1  UNL1       -0.5039
     17 C         140.0103  140.3029  170.6204 C.ar    1  UNL1        0.1354
     18 N         139.9709  139.7175  169.2399 N.ar    1  UNL1       -0.2376
     19 H         140.3914  143.2827  172.2997 H       1  UNL1        0.2923
     20 C         143.5494  138.6710  166.6202 C.3     1  UNL1        0.0774
     21 C         142.7303  139.8565  166.2029 C.2     1  UNL1        0.1766
     22 O         143.3495  141.2222  166.1718 O.2     1  UNL1       -0.2912
     23 C         143.0062  138.6117  163.2577 C.3     1  UNL1        0.1023
     24 N         143.7519  139.9014  163.0826 N.3     1  UNL1       -0.2689
     25 C         145.1558  140.1763  163.5336 C.3     1  UNL1        0.0724
     26 C         145.4962  141.5875  163.1555 C.3     1  UNL1        0.0188
     27 C         144.3025  142.1847  162.4709 C.3     1  UNL1        0.0188
     28 C         143.2245  141.1426  162.4259 C.3     1  UNL1        0.0724
@<TRIPOS>BOND
     1    20    21    1
     2    21    22    2
     3    21     1    1
     4     1     2   ar
     5     2    12    1
     6    12    13   ar
     7    13    14   ar
     8    14    15   ar
     9    15    16    1
    10    15    17   ar
    11    17    18   ar
    12     2     3   ar
    13     3     4   ar
    14     4     5   ar
    15     5     6   ar
    16     6     7   ar
    17     7     8    1
    18     7     9   ar
    19     9    23    1
    20    23    24    1
    21    24    25    1
    22    25    26    1
    23    26    27    1
    24    27    28    1
    25     9    10   ar
    26    10     1   ar
    27    18    12   ar
    28    10     4   ar
    29    28    24    1
    30    16    19    1
    31     8    11    1
@<TRIPOS>MOLECULE
*****
 28 31 0 0 0
SMALL
GASTEIGER

@<TRIPOS>ATOM
      1 C         140.6128  140.5405  165.1382 C.ar    1  UNL1        0.0735
      2 C         140.4399  139.6031  166.2964 C.ar    1  UNL1        0.1655
      3 O         139.7642  138.3627  165.7918 O.2     1  UNL1       -0.4519
      4 C         139.5194  138.5334  164.3218 C.ar    1  UNL1        0.1454
      5 C         138.8867  137.6372  163.2989 C.ar    1  UNL1        0.0406
      6 C         138.7785  138.0869  161.8720 C.ar    1  UNL1        0.0395
      7 C         139.3029  139.4330  161.4681 C.ar    1  UNL1        0.1311
      8 O         139.1947  139.8827  160.0411 O.3     1  UNL1       -0.5058
      9 C         139.9356  140.3292  162.4910 C.ar    1  UNL1        0.0307
     10 C         140.0439  139.8795  163.9178 C.ar    1  UNL1        0.0406
     11 H         138.7994  139.3228  159.4021 H       1  UNL1        0.2922
     12 C         140.8677  139.8609  167.7108 C.ar    1  UNL1        0.1160
     13 C         142.3182  140.0729  168.0288 C.ar    1  UNL1        0.0254
     14 C         142.7460  140.3307  169.4433 C.ar    1  UNL1        0.0399
     15 C         141.7233  140.3765  170.5396 C.ar    1  UNL1        0.1528
     16 O         142.1511  140.6343  171.9540 O.3     1  UNL1       -0.5039
     17 C         140.2729  140.1646  170.2215 C.ar    1  UNL1        0.1354
     18 N         139.8451  139.9068  168.8071 N.ar    1  UNL1       -0.2376
     19 H         143.0572  140.7667  172.1527 H       1  UNL1        0.2923
     20 C         140.4922  143.0532  165.7880 C.3     1  UNL1        0.0774
     21 C         141.2437  141.9004  165.1911 C.2     1  UNL1        0.1766
     22 O         142.6261  142.1074  164.6471 O.2     1  UNL1       -0.2912
     23 C         140.4601  141.6752  162.0870 C.3     1  UNL1        0.1023
     24 N         139.6552  142.9092  162.3689 N.3     1  UNL1       -0.2689
     25 C         138.2201  142.9456  162.8036 C.3     1  UNL1        0.0724
     26 C         137.8221  144.3825  162.9690 C.3     1  UNL1        0.0188
     27 C         139.0114  145.2340  162.6364 C.3     1  UNL1        0.0188
     28 C         140.1443  144.3236  162.2656 C.3     1  UNL1        0.0724
@<TRIPOS>BOND
     1    20    21    1
     2    21    22    2
     3    21     1    1
     4     1     2   ar
     5     2    12    1
     6    12    13   ar
     7    13    14   ar
     8    14    15   ar
     9    15    16    1
    10    15    17   ar
    11    17    18   ar
    12     2     3   ar
    13     3     4   ar
    14     4     5   ar
    15     5     6   ar
    16     6     7   ar
    17     7     8    1
    18     7     9   ar
    19     9    23    1
    20    23    24    1
    21    24    25    1
    22    25    26    1
    23    26    27    1
    24    27    28    1
    25     9    10   ar
    26    10     1   ar
    27    18    12   ar
    28    10     4   ar
    29    28    24    1
    30    16    19    1
    31     8    11    1
@<TRIPOS>MOLECULE
*****
 28 31 0 0 0
SMALL
GASTEIGER

@<TRIPOS>ATOM
      1 C         141.0290  141.6501  165.3435 C.ar    1  UNL1        0.0735
      2 C         140.9351  142.1056  166.7695 C.ar    1  UNL1        0.1655
      3 O         139.9895  143.2688  166.8233 O.2     1  UNL1       -0.4519
      4 C         139.4990  143.5322  165.4304 C.ar    1  UNL1        0.1454
      5 C         138.5504  144.5537  164.8768 C.ar    1  UNL1        0.0406
      6 C         138.2442  144.5748  163.4086 C.ar    1  UNL1        0.0395
      7 C         138.8866  143.5744  162.4940 C.ar    1  UNL1        0.1311
      8 O         138.5804  143.5956  161.0257 O.3     1  UNL1       -0.5058
      9 C         139.8352  142.5529  163.0476 C.ar    1  UNL1        0.0307
     10 C         140.1414  142.5318  164.5158 C.ar    1  UNL1        0.0406
     11 H         137.9878  144.2337  160.6798 H       1  UNL1        0.2922
     12 C         141.6596  141.5036  167.9369 C.ar    1  UNL1        0.1160
     13 C         141.3266  140.1131  168.3902 C.ar    1  UNL1        0.0254
     14 C         142.0511  139.5111  169.5576 C.ar    1  UNL1        0.0399
     15 C         143.1086  140.2997  170.2716 C.ar    1  UNL1        0.1528
     16 O         143.8331  139.6977  171.4390 O.3     1  UNL1       -0.5039
     17 C         143.4415  141.6902  169.8183 C.ar    1  UNL1        0.1354
     18 N         142.7170  142.2922  168.6510 N.ar    1  UNL1       -0.2376
     19 H         143.6251  138.8290  171.7221 H       1  UNL1        0.2923
     20 C         143.3445  140.6853  164.6669 C.3     1  UNL1        0.0774
     21 C         141.8638  140.5127  164.8343 C.2     1  UNL1        0.1766
     22 O         141.2182  139.2026  164.4927 O.2     1  UNL1       -0.2912
     23 C         140.4776  141.5525  162.1330 C.3     1  UNL1        0.1023
     24 N         141.8618  141.7959  161.6089 N.3     1  UNL1       -0.2689
     25 C         142.6054  143.0979  161.6541 C.3     1  UNL1        0.0724
     26 C         143.9487  142.8868  161.0206 C.3     1  UNL1        0.0188
     27 C         144.0352  141.4543  160.5840 C.3     1  UNL1        0.0188
     28 C         142.7456  140.7802  160.9475 C.3     1  UNL1        0.0724
@<TRIPOS>BOND
     1    20    21    1
     2    21    22    2
     3    21     1    1
     4     1     2   ar
     5     2    12    1
     6    12    13   ar
     7    13    14   ar
     8    14    15   ar
     9    15    16    1
    10    15    17   ar
    11    17    18   ar
    12     2     3   ar
    13     3     4   ar
    14     4     5   ar
    15     5     6   ar
    16     6     7   ar
    17     7     8    1
    18     7     9   ar
    19     9    23    1
    20    23    24    1
    21    24    25    1
    22    25    26    1
    23    26    27    1
    24    27    28    1
    25     9    10   ar
    26    10     1   ar
    27    18    12   ar
    28    10     4   ar
    29    28    24    1
    30    16    19    1
    31     8    11    1
@<TRIPOS>MOLECULE
*****
 28 31 0 0 0
SMALL
GASTEIGER

@<TRIPOS>ATOM
      1 C         139.9024  140.7164  165.2776 C.ar    1  UNL1        0.0735
      2 C         140.4992  141.2534  166.5446 C.ar    1  UNL1        0.1655
      3 O         140.2968  142.7396  166.5586 O.2     1  UNL1       -0.4519
      4 C         139.5750  143.1211  165.3002 C.ar    1  UNL1        0.1454
      5 C         139.1082  144.4455  164.7731 C.ar    1  UNL1        0.0406
      6 C         138.3977  144.5195  163.4541 C.ar    1  UNL1        0.0395
      7 C         138.1539  143.2690  162.6624 C.ar    1  UNL1        0.1311
      8 O         137.4433  143.3430  161.3434 O.3     1  UNL1       -0.5058
      9 C         138.6207  141.9446  163.1896 C.ar    1  UNL1        0.0307
     10 C         139.3312  141.8706  164.5085 C.ar    1  UNL1        0.0406
     11 H         137.1517  144.1703  161.0141 H       1  UNL1        0.2922
     12 C         141.1789  140.4461  167.6105 C.ar    1  UNL1        0.1160
     13 C         142.3985  139.6391  167.2769 C.ar    1  UNL1        0.0254
     14 C         143.0783  138.8317  168.3428 C.ar    1  UNL1        0.0399
     15 C         142.5384  138.8313  169.7422 C.ar    1  UNL1        0.1528
     16 O         143.2182  138.0240  170.8081 O.3     1  UNL1       -0.5039
     17 C         141.3188  139.6383  170.0758 C.ar    1  UNL1        0.1354
     18 N         140.6391  140.4457  169.0099 N.ar    1  UNL1       -0.2376
     19 H         143.9800  137.5198  170.5997 H       1  UNL1        0.2923
     20 C         138.8252  138.3546  165.3873 C.3     1  UNL1        0.0774
     21 C         139.8806  139.2776  164.8539 C.2     1  UNL1        0.1766
     22 O         140.9141  138.7617  163.8970 O.2     1  UNL1       -0.2912
     23 C         138.3769  140.6941  162.3978 C.3     1  UNL1        0.1023
     24 N         138.7945  140.6241  160.9588 N.3     1  UNL1       -0.2689
     25 C         140.1554  140.9500  160.4188 C.3     1  UNL1        0.0724
     26 C         140.1264  140.7433  158.9333 C.3     1  UNL1        0.0188
     27 C         138.7475  140.2896  158.5553 C.3     1  UNL1        0.0188
     28 C         137.9243  140.2160  159.8071 C.3     1  UNL1        0.0724
@<TRIPOS>BOND
     1    20    21    1
     2    21    22    2
     3    21     1    1
     4     1     2   ar
     5     2    12    1
     6    12    13   ar
     7    13    14   ar
     8    14    15   ar
     9    15    16    1
    10    15    17   ar
    11    17    18   ar
    12     2     3   ar
    13     3     4   ar
    14     4     5   ar
    15     5     6   ar
    16     6     7   ar
    17     7     8    1
    18     7     9   ar
    19     9    23    1
    20    23    24    1
    21    24    25    1
    22    25    26    1
    23    26    27    1
    24    27    28    1
    25     9    10   ar
    26    10     1   ar
    27    18    12   ar
    28    10     4   ar
    29    28    24    1
    30    16    19    1
    31     8    11    1
