@<TRIPOS>MOLECULE
*****
 25 26 0 0 0
SMALL
GASTEIGER

@<TRIPOS>ATOM
      1 C         138.4848  139.2102  166.0752 C.ar    1  UNL1        0.0015
      2 C         138.7684  137.9460  165.3194 C.ar    1  UNL1        0.0001
      3 C         138.7508  137.9489  163.8195 C.ar    1  UNL1        0.0014
      4 C         138.4497  139.2160  163.0755 C.ar    1  UNL1        0.0202
      5 C         138.1662  140.4802  163.8313 C.ar    1  UNL1        0.1252
      6 C         138.1837  140.4773  165.3312 C.ar    1  UNL1        0.0202
      7 S         137.8650  141.7474  163.0872 S.O2    1  UNL1        0.0736
      8 O         138.4100  142.5491  164.2319 O.2     1  UNL1       -0.1499
      9 O         137.3201  140.9457  161.9425 O.2     1  UNL1       -0.1499
     10 N         137.5639  143.0145  162.3431 N.pl3   1  UNL1       -0.2150
     11 H         136.6334  143.3229  162.2526 H       1  UNL1        0.1737
     12 C         138.6806  143.8117  161.7369 C.ar    1  UNL1        0.0648
     13 C         139.4363  143.2695  160.5600 C.ar    1  UNL1        0.0159
     14 C         140.5529  144.0667  159.9538 C.ar    1  UNL1        0.0013
     15 C         140.9139  145.4062  160.5245 C.ar    1  UNL1        0.0001
     16 C         140.1582  145.9484  161.7013 C.ar    1  UNL1        0.0013
     17 C         139.0416  145.1512  162.3075 C.ar    1  UNL1        0.0159
     18 C         139.3898  140.1625  168.3167 C.2     1  UNL1        0.0598
     19 C         138.5023  139.2073  167.5751 C.2     1  UNL1        0.0048
     20 O         138.1759  139.7720  170.5803 O.2     1  UNL1       -0.2681
     21 C         139.4073  140.1596  169.8166 C.2     1  UNL1        0.2679
     22 N         140.6564  140.5443  170.5528 N.am    1  UNL1       -0.1934
     23 O         140.6739  140.5414  172.0526 O.3     1  UNL1       -0.2949
     24 H         141.4647  140.7986  170.0515 H       1  UNL1        0.1825
     25 H         139.8046  140.2689  172.3856 H       1  UNL1        0.2414
@<TRIPOS>BOND
     1    20    21    2
     2    21    18    1
     3    18    19    2
     4    19     1    1
     5     1     2   ar
     6     2     3   ar
     7     3     4   ar
     8     4     5   ar
     9     5     7    1
    10     7     8    2
    11     7     9    2
    12     7    10    1
    13    10    12    1
    14    12    13   ar
    15    13    14   ar
    16    14    15   ar
    17    15    16   ar
    18    16    17   ar
    19     5     6   ar
    20    21    22   am
    21    22    23    1
    22     6     1   ar
    23    17    12   ar
    24    10    11    1
    25    22    24    1
    26    23    25    1
@<TRIPOS>MOLECULE
*****
 25 26 0 0 0
SMALL
GASTEIGER

@<TRIPOS>ATOM
      1 C         139.4450  139.8262  167.2251 C.ar    1  UNL1        0.0015
      2 C         138.1401  139.1721  167.5707 C.ar    1  UNL1        0.0001
      3 C         137.6582  137.9942  166.7769 C.ar    1  UNL1        0.0014
      4 C         138.4811  137.4702  165.6376 C.ar    1  UNL1        0.0202
      5 C         139.7860  138.1242  165.2920 C.ar    1  UNL1        0.1252
      6 C         140.2679  139.3022  166.0857 C.ar    1  UNL1        0.0202
      7 S         140.6090  137.6003  164.1525 S.O2    1  UNL1        0.0736
      8 O         139.3592  137.3705  163.3555 O.2     1  UNL1       -0.1499
      9 O         141.8587  137.8301  164.9496 O.2     1  UNL1       -0.1499
     10 N         141.4319  137.0764  163.0132 N.pl3   1  UNL1       -0.2150
     11 H         141.5643  136.1067  162.9067 H       1  UNL1        0.1737
     12 C         142.0533  138.0299  162.0361 C.ar    1  UNL1        0.0648
     13 C         141.1816  138.8700  161.1503 C.ar    1  UNL1        0.0159
     14 C         141.8030  139.8236  160.1732 C.ar    1  UNL1        0.0013
     15 C         143.2959  139.9370  160.0819 C.ar    1  UNL1        0.0001
     16 C         144.1675  139.0970  160.9677 C.ar    1  UNL1        0.0013
     17 C         143.5462  138.1434  161.9448 C.ar    1  UNL1        0.0159
     18 C         139.6154  141.1001  169.4830 C.2     1  UNL1        0.0598
     19 C         139.9269  141.0042  168.0189 C.2     1  UNL1        0.0048
     20 O         140.4919  142.1037  171.7133 O.2     1  UNL1       -0.2681
     21 C         140.0973  142.2781  170.2767 C.2     1  UNL1        0.2679
     22 N         140.1847  143.6306  169.6338 N.am    1  UNL1       -0.1934
     23 O         140.6667  144.8086  170.4276 O.3     1  UNL1       -0.2949
     24 H         139.9257  143.7451  168.6909 H       1  UNL1        0.1825
     25 H         140.8787  144.5250  171.3307 H       1  UNL1        0.2414
@<TRIPOS>BOND
     1    20    21    2
     2    21    18    1
     3    18    19    2
     4    19     1    1
     5     1     2   ar
     6     2     3   ar
     7     3     4   ar
     8     4     5   ar
     9     5     7    1
    10     7     8    2
    11     7     9    2
    12     7    10    1
    13    10    12    1
    14    12    13   ar
    15    13    14   ar
    16    14    15   ar
    17    15    16   ar
    18    16    17   ar
    19     5     6   ar
    20    21    22   am
    21    22    23    1
    22     6     1   ar
    23    17    12   ar
    24    10    11    1
    25    22    24    1
    26    23    25    1
@<TRIPOS>MOLECULE
*****
 25 26 0 0 0
SMALL
GASTEIGER

@<TRIPOS>ATOM
      1 C         139.7024  140.0465  167.9224 C.ar    1  UNL1        0.0015
      2 C         138.3667  139.3644  167.8971 C.ar    1  UNL1        0.0001
      3 C         137.9643  138.5472  166.7053 C.ar    1  UNL1        0.0014
      4 C         138.8976  138.4123  165.5388 C.ar    1  UNL1        0.0202
      5 C         140.2332  139.0944  165.5641 C.ar    1  UNL1        0.1252
      6 C         140.6356  139.9116  166.7559 C.ar    1  UNL1        0.0202
      7 S         141.1665  138.9594  164.3975 S.O2    1  UNL1        0.0736
      8 O         141.7300  137.7036  164.9936 O.2     1  UNL1       -0.1499
      9 O         140.6031  140.2153  163.8015 O.2     1  UNL1       -0.1499
     10 N         142.0998  138.8245  163.2310 N.pl3   1  UNL1       -0.2150
     11 H         141.9616  138.1079  162.5704 H       1  UNL1        0.1737
     12 C         143.2437  139.7815  163.0711 C.ar    1  UNL1        0.0648
     13 C         144.2541  139.9329  164.1695 C.ar    1  UNL1        0.0159
     14 C         145.3980  140.8899  164.0096 C.ar    1  UNL1        0.0013
     15 C         145.5316  141.6956  162.7513 C.ar    1  UNL1        0.0001
     16 C         144.5212  141.5442  161.6530 C.ar    1  UNL1        0.0013
     17 C         143.3773  140.5872  161.8130 C.ar    1  UNL1        0.0159
     18 C         141.4610  141.5026  169.1622 C.2     1  UNL1        0.0598
     19 C         140.1048  140.8637  169.1142 C.2     1  UNL1        0.0048
     20 O         141.1158  142.1792  171.6467 O.2     1  UNL1       -0.2681
     21 C         141.8634  142.3197  170.3539 C.2     1  UNL1        0.2679
     22 N         143.0135  143.2775  170.2529 N.am    1  UNL1       -0.1934
     23 O         143.4159  144.0946  171.4447 O.3     1  UNL1       -0.2949
     24 H         143.5042  143.3697  169.4044 H       1  UNL1        0.1825
     25 H         142.8346  143.8842  172.1922 H       1  UNL1        0.2414
@<TRIPOS>BOND
     1    20    21    2
     2    21    18    1
     3    18    19    2
     4    19     1    1
     5     1     2   ar
     6     2     3   ar
     7     3     4   ar
     8     4     5   ar
     9     5     7    1
    10     7     8    2
    11     7     9    2
    12     7    10    1
    13    10    12    1
    14    12    13   ar
    15    13    14   ar
    16    14    15   ar
    17    15    16   ar
    18    16    17   ar
    19     5     6   ar
    20    21    22   am
    21    22    23    1
    22     6     1   ar
    23    17    12   ar
    24    10    11    1
    25    22    24    1
    26    23    25    1
@<TRIPOS>MOLECULE
*****
 25 26 0 0 0
SMALL
GASTEIGER

@<TRIPOS>ATOM
      1 C         138.9888  139.4257  166.5032 C.ar    1  UNL1        0.0015
      2 C         138.6217  138.0704  165.9757 C.ar    1  UNL1        0.0001
      3 C         138.7152  137.7872  164.5057 C.ar    1  UNL1        0.0014
      4 C         139.1758  138.8593  163.5631 C.ar    1  UNL1        0.0202
      5 C         139.5428  140.2146  164.0906 C.ar    1  UNL1        0.1252
      6 C         139.4493  140.4979  165.5607 C.ar    1  UNL1        0.0202
      7 S         140.0033  141.2869  163.1481 S.O2    1  UNL1        0.0736
      8 O         138.9845  142.2274  163.7201 O.2     1  UNL1       -0.1499
      9 O         141.0222  140.3463  162.5761 O.2     1  UNL1       -0.1499
     10 N         140.4639  142.3590  162.2055 N.pl3   1  UNL1       -0.2150
     11 H         140.0273  142.4651  161.3296 H       1  UNL1        0.1737
     12 C         141.5897  143.2694  162.5976 C.ar    1  UNL1        0.0648
     13 C         141.3235  144.4563  163.4755 C.ar    1  UNL1        0.0159
     14 C         142.4493  145.3666  163.8676 C.ar    1  UNL1        0.0013
     15 C         143.8413  145.0902  163.3818 C.ar    1  UNL1        0.0001
     16 C         144.1075  143.9033  162.5040 C.ar    1  UNL1        0.0013
     17 C         142.9817  142.9929  162.1120 C.ar    1  UNL1        0.0159
     18 C         140.0889  140.2363  168.7129 C.2     1  UNL1        0.0598
     19 C         138.8953  139.7090  167.9733 C.2     1  UNL1        0.0048
     20 O         139.3725  139.5116  171.1028 O.2     1  UNL1       -0.2681
     21 C         139.9954  140.5195  170.1829 C.2     1  UNL1        0.2679
     22 N         140.5248  141.8107  170.7331 N.am    1  UNL1       -0.1934
     23 O         140.4313  142.0939  172.2032 O.3     1  UNL1       -0.2949
     24 H         140.9337  142.4722  170.1294 H       1  UNL1        0.1825
     25 H         140.0056  141.3457  172.6502 H       1  UNL1        0.2414
@<TRIPOS>BOND
     1    20    21    2
     2    21    18    1
     3    18    19    2
     4    19     1    1
     5     1     2   ar
     6     2     3   ar
     7     3     4   ar
     8     4     5   ar
     9     5     7    1
    10     7     8    2
    11     7     9    2
    12     7    10    1
    13    10    12    1
    14    12    13   ar
    15    13    14   ar
    16    14    15   ar
    17    15    16   ar
    18    16    17   ar
    19     5     6   ar
    20    21    22   am
    21    22    23    1
    22     6     1   ar
    23    17    12   ar
    24    10    11    1
    25    22    24    1
    26    23    25    1
@<TRIPOS>MOLECULE
*****
 25 26 0 0 0
SMALL
GASTEIGER

@<TRIPOS>ATOM
      1 C         139.7283  143.0119  166.1141 C.ar    1  UNL1        0.0015
      2 C         139.1915  144.4099  166.0274 C.ar    1  UNL1        0.0001
      3 C         138.1831  144.7620  164.9743 C.ar    1  UNL1        0.0014
      4 C         137.7114  143.7162  164.0079 C.ar    1  UNL1        0.0202
      5 C         138.2482  142.3183  164.0947 C.ar    1  UNL1        0.1252
      6 C         139.2567  141.9662  165.1478 C.ar    1  UNL1        0.0202
      7 S         137.7766  141.2724  163.1283 S.O2    1  UNL1        0.0736
      8 O         137.5318  142.3347  162.0980 O.2     1  UNL1       -0.1499
      9 O         138.0213  140.2102  164.1586 O.2     1  UNL1       -0.1499
     10 N         137.3050  140.2266  162.1620 N.pl3   1  UNL1       -0.2150
     11 H         136.4030  139.8427  162.2536 H       1  UNL1        0.1737
     12 C         138.2075  139.7656  161.0562 C.ar    1  UNL1        0.0648
     13 C         139.4163  138.9352  161.3717 C.ar    1  UNL1        0.0159
     14 C         140.3189  138.4742  160.2659 C.ar    1  UNL1        0.0013
     15 C         140.0127  138.8436  158.8446 C.ar    1  UNL1        0.0001
     16 C         138.8040  139.6740  158.5292 C.ar    1  UNL1        0.0013
     17 C         137.9014  140.1350  159.6350 C.ar    1  UNL1        0.0159
     18 C         140.5647  143.1646  168.5691 C.2     1  UNL1        0.0598
     19 C         140.7368  142.6598  167.1672 C.2     1  UNL1        0.0048
     20 O         143.0335  142.7805  169.2814 O.2     1  UNL1       -0.2681
     21 C         141.5731  142.8125  169.6222 C.2     1  UNL1        0.2679
     22 N         141.1211  142.4923  171.0163 N.am    1  UNL1       -0.1934
     23 O         142.1295  142.1401  172.0694 O.3     1  UNL1       -0.2949
     24 H         140.1626  142.5133  171.2400 H       1  UNL1        0.1825
     25 H         143.0201  142.1657  171.6857 H       1  UNL1        0.2414
@<TRIPOS>BOND
     1    20    21    2
     2    21    18    1
     3    18    19    2
     4    19     1    1
     5     1     2   ar
     6     2     3   ar
     7     3     4   ar
     8     4     5   ar
     9     5     7    1
    10     7     8    2
    11     7     9    2
    12     7    10    1
    13    10    12    1
    14    12    13   ar
    15    13    14   ar
    16    14    15   ar
    17    15    16   ar
    18    16    17   ar
    19     5     6   ar
    20    21    22   am
    21    22    23    1
    22     6     1   ar
    23    17    12   ar
    24    10    11    1
    25    22    24    1
    26    23    25    1
@<TRIPOS>MOLECULE
*****
 25 26 0 0 0
SMALL
GASTEIGER

@<TRIPOS>ATOM
      1 C         139.7903  140.8805  167.1837 C.ar    1  UNL1        0.0015
      2 C         139.3713  139.4450  167.3010 C.ar    1  UNL1        0.0001
      3 C         138.5541  138.8111  166.2146 C.ar    1  UNL1        0.0014
      4 C         138.1558  139.6127  165.0109 C.ar    1  UNL1        0.0202
      5 C         138.5748  141.0482  164.8937 C.ar    1  UNL1        0.1252
      6 C         139.3920  141.6821  165.9801 C.ar    1  UNL1        0.0202
      7 S         138.1765  141.8498  163.6900 S.O2    1  UNL1        0.0736
      8 O         137.5493  142.8790  164.5829 O.2     1  UNL1       -0.1499
      9 O         138.8036  140.8206  162.7971 O.2     1  UNL1       -0.1499
     10 N         137.7783  142.6514  162.4863 N.pl3   1  UNL1       -0.2150
     11 H         136.8683  142.5697  162.1196 H       1  UNL1        0.1737
     12 C         138.7665  143.5774  161.8414 C.ar    1  UNL1        0.0648
     13 C         139.1390  144.8644  162.5159 C.ar    1  UNL1        0.0159
     14 C         140.1273  145.7904  161.8710 C.ar    1  UNL1        0.0013
     15 C         140.7429  145.4294  160.5516 C.ar    1  UNL1        0.0001
     16 C         140.3703  144.1425  159.8771 C.ar    1  UNL1        0.0013
     17 C         139.3821  143.2165  160.5221 C.ar    1  UNL1        0.0159
     18 C         140.4376  142.9714  168.5833 C.2     1  UNL1        0.0598
     19 C         140.6075  141.5144  168.2701 C.2     1  UNL1        0.0048
     20 O         140.6878  144.7408  170.4692 O.2     1  UNL1       -0.2681
     21 C         141.2548  143.6054  169.6697 C.2     1  UNL1        0.2679
     22 N         142.6391  143.1038  169.9566 N.am    1  UNL1       -0.1934
     23 O         143.4564  143.7377  171.0430 O.3     1  UNL1       -0.2949
     24 H         143.0113  142.3585  169.4318 H       1  UNL1        0.1825
     25 H         142.9457  144.4506  171.4576 H       1  UNL1        0.2414
@<TRIPOS>BOND
     1    20    21    2
     2    21    18    1
     3    18    19    2
     4    19     1    1
     5     1     2   ar
     6     2     3   ar
     7     3     4   ar
     8     4     5   ar
     9     5     7    1
    10     7     8    2
    11     7     9    2
    12     7    10    1
    13    10    12    1
    14    12    13   ar
    15    13    14   ar
    16    14    15   ar
    17    15    16   ar
    18    16    17   ar
    19     5     6   ar
    20    21    22   am
    21    22    23    1
    22     6     1   ar
    23    17    12   ar
    24    10    11    1
    25    22    24    1
    26    23    25    1
@<TRIPOS>MOLECULE
*****
 25 26 0 0 0
SMALL
GASTEIGER

@<TRIPOS>ATOM
      1 C         141.5354  139.7786  167.1972 C.ar    1  UNL1        0.0015
      2 C         142.9457  139.2691  167.1603 C.ar    1  UNL1        0.0001
      3 C         143.3741  138.3254  166.0760 C.ar    1  UNL1        0.0014
      4 C         142.3922  137.8911  165.0285 C.ar    1  UNL1        0.0202
      5 C         140.9819  138.4007  165.0654 C.ar    1  UNL1        0.1252
      6 C         140.5535  139.3444  166.1497 C.ar    1  UNL1        0.0202
      7 S         139.9999  137.9664  164.0179 S.O2    1  UNL1        0.0736
      8 O         140.9420  136.8830  163.5837 O.2     1  UNL1       -0.1499
      9 O         139.0578  139.0499  164.4520 O.2     1  UNL1       -0.1499
     10 N         139.0179  137.5323  162.9704 N.pl3   1  UNL1       -0.2150
     11 H         138.4600  136.7348  163.1191 H       1  UNL1        0.1737
     12 C         138.8858  138.3131  161.6965 C.ar    1  UNL1        0.0648
     13 C         137.6368  139.0978  161.4239 C.ar    1  UNL1        0.0159
     14 C         137.5048  139.8787  160.1500 C.ar    1  UNL1        0.0013
     15 C         138.6217  139.8748  159.1487 C.ar    1  UNL1        0.0001
     16 C         139.8706  139.0901  159.4213 C.ar    1  UNL1        0.0013
     17 C         140.0027  138.3092  160.6953 C.ar    1  UNL1        0.0159
     18 C         140.7101  140.1892  169.6262 C.2     1  UNL1        0.0598
     19 C         141.1070  140.7224  168.2816 C.2     1  UNL1        0.0048
     20 O         140.7592  140.9255  172.1173 O.2     1  UNL1       -0.2681
     21 C         140.2817  141.1330  170.7106 C.2     1  UNL1        0.2679
     22 N         139.3758  142.2843  170.3882 N.am    1  UNL1       -0.1934
     23 O         138.9474  143.2280  171.4725 O.3     1  UNL1       -0.2949
     24 H         139.0624  142.4205  169.4649 H       1  UNL1        0.1825
     25 H         139.3420  142.9532  172.3149 H       1  UNL1        0.2414
@<TRIPOS>BOND
     1    20    21    2
     2    21    18    1
     3    18    19    2
     4    19     1    1
     5     1     2   ar
     6     2     3   ar
     7     3     4   ar
     8     4     5   ar
     9     5     7    1
    10     7     8    2
    11     7     9    2
    12     7    10    1
    13    10    12    1
    14    12    13   ar
    15    13    14   ar
    16    14    15   ar
    17    15    16   ar
    18    16    17   ar
    19     5     6   ar
    20    21    22   am
    21    22    23    1
    22     6     1   ar
    23    17    12   ar
    24    10    11    1
    25    22    24    1
    26    23    25    1
@<TRIPOS>MOLECULE
*****
 25 26 0 0 0
SMALL
GASTEIGER

@<TRIPOS>ATOM
      1 C         142.6749  140.3813  167.0927 C.ar    1  UNL1        0.0015
      2 C         143.0837  138.9524  166.8900 C.ar    1  UNL1        0.0001
      3 C         143.6439  138.5126  165.5700 C.ar    1  UNL1        0.0014
      4 C         143.7954  139.5016  164.4525 C.ar    1  UNL1        0.0202
      5 C         143.3867  140.9305  164.6551 C.ar    1  UNL1        0.1252
      6 C         142.8264  141.3704  165.9752 C.ar    1  UNL1        0.0202
      7 S         143.5382  141.9197  163.5376 S.O2    1  UNL1        0.0736
      8 O         144.5587  142.6705  164.3406 O.2     1  UNL1       -0.1499
      9 O         142.5177  141.1688  162.7347 O.2     1  UNL1       -0.1499
     10 N         143.6896  142.9087  162.4202 N.pl3   1  UNL1       -0.2150
     11 H         144.5301  142.9490  161.9090 H       1  UNL1        0.1737
     12 C         142.5606  143.8364  162.0815 C.ar    1  UNL1        0.0648
     13 C         142.1202  143.9927  160.6561 C.ar    1  UNL1        0.0159
     14 C         140.9912  144.9204  160.3174 C.ar    1  UNL1        0.0013
     15 C         140.3025  145.6917  161.4041 C.ar    1  UNL1        0.0001
     16 C         140.7429  145.5354  162.8294 C.ar    1  UNL1        0.0013
     17 C         141.8719  144.6077  163.1681 C.ar    1  UNL1        0.0159
     18 C         141.0753  139.9875  169.1017 C.2     1  UNL1        0.0598
     19 C         142.1147  140.8212  168.4128 C.2     1  UNL1        0.0048
     20 O         139.5157  139.5669  171.1366 O.2     1  UNL1       -0.2681
     21 C         140.5151  140.4273  170.4218 C.2     1  UNL1        0.2679
     22 N         140.9542  141.7277  171.0271 N.am    1  UNL1       -0.1934
     23 O         140.3940  142.1675  172.3472 O.3     1  UNL1       -0.2949
     24 H         141.6102  142.2924  170.5580 H       1  UNL1        0.1825
     25 H         139.7669  141.5017  172.6703 H       1  UNL1        0.2414
@<TRIPOS>BOND
     1    20    21    2
     2    21    18    1
     3    18    19    2
     4    19     1    1
     5     1     2   ar
     6     2     3   ar
     7     3     4   ar
     8     4     5   ar
     9     5     7    1
    10     7     8    2
    11     7     9    2
    12     7    10    1
    13    10    12    1
    14    12    13   ar
    15    13    14   ar
    16    14    15   ar
    17    15    16   ar
    18    16    17   ar
    19     5     6   ar
    20    21    22   am
    21    22    23    1
    22     6     1   ar
    23    17    12   ar
    24    10    11    1
    25    22    24    1
    26    23    25    1
@<TRIPOS>MOLECULE
*****
 25 26 0 0 0
SMALL
GASTEIGER

@<TRIPOS>ATOM
      1 C         141.9419  142.5265  166.0624 C.ar    1  UNL1        0.0015
      2 C         143.4055  142.4671  166.3852 C.ar    1  UNL1        0.0001
      3 C         144.3971  143.1659  165.5029 C.ar    1  UNL1        0.0014
      4 C         143.9250  143.9241  164.2978 C.ar    1  UNL1        0.0202
      5 C         142.4614  143.9836  163.9751 C.ar    1  UNL1        0.1252
      6 C         141.4698  143.2848  164.8574 C.ar    1  UNL1        0.0202
      7 S         141.9893  144.7419  162.7700 S.O2    1  UNL1        0.0736
      8 O         140.7883  145.2117  163.5360 O.2     1  UNL1       -0.1499
      9 O         143.1903  144.2721  162.0039 O.2     1  UNL1       -0.1499
     10 N         141.5172  145.5001  161.5649 N.pl3   1  UNL1       -0.2150
     11 H         141.6736  146.4700  161.5012 H       1  UNL1        0.1737
     12 C         140.8068  144.7806  160.4569 C.ar    1  UNL1        0.0648
     13 C         139.9335  143.6011  160.7674 C.ar    1  UNL1        0.0159
     14 C         139.2231  142.8816  159.6594 C.ar    1  UNL1        0.0013
     15 C         139.3860  143.3416  158.2409 C.ar    1  UNL1        0.0001
     16 C         140.2593  144.5210  157.9305 C.ar    1  UNL1        0.0013
     17 C         140.9697  145.2405  159.0385 C.ar    1  UNL1        0.0159
     18 C         141.4286  140.9093  168.0299 C.2     1  UNL1        0.0598
     19 C         140.9503  141.8277  166.9447 C.2     1  UNL1        0.0048
     20 O         139.1951  139.6141  168.3191 O.2     1  UNL1       -0.2681
     21 C         140.4370  140.2105  168.9122 C.2     1  UNL1        0.2679
     22 N         140.6875  140.1081  170.3876 N.am    1  UNL1       -0.1934
     23 O         139.6959  139.4093  171.2699 O.3     1  UNL1       -0.2949
     24 H         141.5026  140.4996  170.7769 H       1  UNL1        0.1825
     25 H         138.9569  139.0848  170.7320 H       1  UNL1        0.2414
@<TRIPOS>BOND
     1    20    21    2
     2    21    18    1
     3    18    19    2
     4    19     1    1
     5     1     2   ar
     6     2     3   ar
     7     3     4   ar
     8     4     5   ar
     9     5     7    1
    10     7     8    2
    11     7     9    2
    12     7    10    1
    13    10    12    1
    14    12    13   ar
    15    13    14   ar
    16    14    15   ar
    17    15    16   ar
    18    16    17   ar
    19     5     6   ar
    20    21    22   am
    21    22    23    1
    22     6     1   ar
    23    17    12   ar
    24    10    11    1
    25    22    24    1
    26    23    25    1
