@<TRIPOS>MOLECULE
*****
 35 39 0 0 0
SMALL
GASTEIGER

@<TRIPOS>ATOM
      1 N         139.8000  142.5520  160.8406 N.3     1  UNL1       -0.2674
      2 C         138.9019  142.6662  162.0366 C.3     1  UNL1        0.0940
      3 C         138.6135  141.4569  162.8759 C.3     1  UNL1        0.1107
      4 N         139.2231  140.1336  162.5193 N.am    1  UNL1       -0.2764
      5 C         138.9346  138.9244  163.3587 C.2     1  UNL1        0.2302
      6 O         139.5443  137.6011  163.0021 O.2     1  UNL1       -0.2745
      7 C         140.1212  140.0195  161.3234 C.3     1  UNL1        0.1107
      8 C         140.4097  141.2287  160.4840 C.3     1  UNL1        0.0940
      9 C         140.0885  143.7613  160.0013 C.3     1  UNL1        0.1064
     10 C         141.3034  144.5955  160.2804 C.3     1  UNL1        0.1483
     11 O         141.6837  145.7037  159.3437 O.3     1  UNL1       -0.3786
     12 H         142.4871  146.1398  159.6681 H       1  UNL1        0.2108
     13 C         143.5955  142.6663  160.1228 C.3     1  UNL1        0.0306
     14 C         143.2842  143.3570  161.4175 C.ar    1  UNL1       -0.0238
     15 C         142.1381  144.3216  161.4963 C.ar    1  UNL1        0.0015
     16 C         141.8268  145.0122  162.7909 C.ar    1  UNL1       -0.0020
     17 C         142.6615  144.7384  164.0067 C.ar    1  UNL1        0.0060
     18 C         143.8075  143.7738  163.9280 C.ar    1  UNL1        0.0748
     19 C         144.1189  143.0831  162.6334 C.ar    1  UNL1        0.0233
     20 C         145.3027  142.1896  162.8576 C.3     1  UNL1        0.2352
     21 O         145.7229  142.3281  164.2909 O.3     1  UNL1       -0.4404
     22 C         144.7989  143.3072  164.9524 C.2     1  UNL1        0.3413
     23 O         144.8562  143.7431  166.3865 O.2     1  UNL1       -0.2449
     24 C         138.0365  139.0384  164.5547 C.3     1  UNL1        0.1131
     25 C         138.5934  139.4968  165.8699 C.ar    1  UNL1        0.0062
     26 C         139.7372  140.4666  165.9028 C.ar    1  UNL1        0.0009
     27 C         140.2942  140.9251  167.2179 C.ar    1  UNL1        0.0386
     28 C         139.7074  140.4137  168.5001 C.ar    1  UNL1        0.1672
     29 N         138.5636  139.4438  168.4672 N.ar    1  UNL1       -0.2252
     30 C         138.0066  138.9854  167.1521 C.ar    1  UNL1        0.0968
     31 N         140.2644  140.8720  169.8154 N.ar    1  UNL1       -0.1708
     32 C         141.5686  140.4419  170.4186 C.ar    1  UNL1        0.2272
     33 N         141.7250  141.1451  171.7343 N.ar    1  UNL1       -0.1044
     34 N         140.5175  142.0098  171.9441 N.ar    1  UNL1       -0.0222
     35 N         139.6148  141.8411  170.7582 N.ar    1  UNL1       -0.0371
@<TRIPOS>BOND
     1    13    14    1
     2    14    15   ar
     3    15    10    1
     4    10    11    1
     5    10     9    1
     6     9     1    1
     7     1     2    1
     8     2     3    1
     9     3     4    1
    10     4     5   am
    11     5     6    2
    12     5    24    1
    13    24    25    1
    14    25    26   ar
    15    26    27   ar
    16    27    28   ar
    17    28    31    1
    18    31    32   ar
    19    32    33   ar
    20    33    34   ar
    21    34    35   ar
    22    28    29   ar
    23    29    30   ar
    24     4     7    1
    25     7     8    1
    26    15    16   ar
    27    16    17   ar
    28    17    18   ar
    29    18    19   ar
    30    19    20    1
    31    20    21    1
    32    21    22    1
    33    22    23    2
    34    19    14   ar
    35     8     1    1
    36    22    18    1
    37    30    25   ar
    38    35    31   ar
    39    11    12    1
@<TRIPOS>MOLECULE
*****
 35 39 0 0 0
SMALL
GASTEIGER

@<TRIPOS>ATOM
      1 N         142.7756  141.5714  161.0436 N.3     1  UNL1       -0.2674
      2 C         143.3736  141.4865  162.4166 C.3     1  UNL1        0.0940
      3 C         143.0784  140.3042  163.2913 C.3     1  UNL1        0.1107
      4 N         142.1853  139.2069  162.7929 N.am    1  UNL1       -0.2764
      5 C         141.8902  138.0247  163.6677 C.2     1  UNL1        0.2302
      6 O         140.9972  136.9273  163.1694 O.2     1  UNL1       -0.2745
      7 C         141.5874  139.2918  161.4199 C.3     1  UNL1        0.1107
      8 C         141.8825  140.4741  160.5452 C.3     1  UNL1        0.0940
      9 C         143.0707  142.7537  160.1688 C.3     1  UNL1        0.1064
     10 C         142.2434  143.9992  160.2871 C.3     1  UNL1        0.1483
     11 O         142.2832  145.0321  159.2001 O.3     1  UNL1       -0.3786
     12 H         141.6953  145.7681  159.4317 H       1  UNL1        0.2108
     13 C         139.3667  143.1493  160.2341 C.3     1  UNL1        0.0306
     14 C         139.9377  143.7870  161.4659 C.ar    1  UNL1       -0.0238
     15 C         141.3761  144.2120  161.4925 C.ar    1  UNL1        0.0015
     16 C         141.9472  144.8496  162.7242 C.ar    1  UNL1       -0.0020
     17 C         141.0800  145.0623  163.9294 C.ar    1  UNL1        0.0060
     18 C         139.6417  144.6374  163.9030 C.ar    1  UNL1        0.0748
     19 C         139.0706  143.9997  162.6712 C.ar    1  UNL1        0.0233
     20 C         137.6282  143.6861  162.9378 C.3     1  UNL1        0.2352
     21 O         137.3078  144.1299  164.3343 O.3     1  UNL1       -0.4404
     22 C         138.5522  144.7179  164.9309 C.2     1  UNL1        0.3413
     23 O         138.6840  145.2864  166.3126 O.2     1  UNL1       -0.2449
     24 C         142.4881  137.9396  165.0408 C.3     1  UNL1        0.1131
     25 C         142.0283  138.8763  166.1183 C.ar    1  UNL1        0.0062
     26 C         142.9091  139.1483  167.3016 C.ar    1  UNL1        0.0009
     27 C         142.4494  140.0850  168.3793 C.ar    1  UNL1        0.0386
     28 C         141.1088  140.7495  168.2736 C.ar    1  UNL1        0.1672
     29 N         140.2280  140.4775  167.0903 N.ar    1  UNL1       -0.2252
     30 C         140.6877  139.5408  166.0127 C.ar    1  UNL1        0.0968
     31 N         140.6489  141.6862  169.3512 N.ar    1  UNL1       -0.1708
     32 C         140.4051  143.1580  169.1952 C.ar    1  UNL1        0.2272
     33 N         139.9576  143.6969  170.5216 N.ar    1  UNL1       -0.1044
     34 N         139.9249  142.5581  171.4973 N.ar    1  UNL1       -0.0222
     35 N         140.3521  141.3155  170.7740 N.ar    1  UNL1       -0.0371
@<TRIPOS>BOND
     1    13    14    1
     2    14    15   ar
     3    15    10    1
     4    10    11    1
     5    10     9    1
     6     9     1    1
     7     1     2    1
     8     2     3    1
     9     3     4    1
    10     4     5   am
    11     5     6    2
    12     5    24    1
    13    24    25    1
    14    25    26   ar
    15    26    27   ar
    16    27    28   ar
    17    28    31    1
    18    31    32   ar
    19    32    33   ar
    20    33    34   ar
    21    34    35   ar
    22    28    29   ar
    23    29    30   ar
    24     4     7    1
    25     7     8    1
    26    15    16   ar
    27    16    17   ar
    28    17    18   ar
    29    18    19   ar
    30    19    20    1
    31    20    21    1
    32    21    22    1
    33    22    23    2
    34    19    14   ar
    35     8     1    1
    36    22    18    1
    37    30    25   ar
    38    35    31   ar
    39    11    12    1
@<TRIPOS>MOLECULE
*****
 35 39 0 0 0
SMALL
GASTEIGER

@<TRIPOS>ATOM
      1 N         140.6322  138.9432  160.9991 N.3     1  UNL1       -0.2674
      2 C         140.4964  138.2708  162.3331 C.3     1  UNL1        0.0940
      3 C         141.5905  138.3971  163.3513 C.3     1  UNL1        0.1107
      4 N         142.8204  139.1957  163.0357 N.am    1  UNL1       -0.2764
      5 C         143.9145  139.3219  164.0540 C.2     1  UNL1        0.2302
      6 O         145.1444  140.1205  163.7383 O.2     1  UNL1       -0.2745
      7 C         142.9562  139.8680  161.7017 C.3     1  UNL1        0.1107
      8 C         141.8621  139.7418  160.6833 C.3     1  UNL1        0.0940
      9 C         139.5381  138.8169  159.9807 C.3     1  UNL1        0.1064
     10 C         138.5463  139.9282  159.8039 C.3     1  UNL1        0.1483
     11 O         137.6885  139.9794  158.5744 O.3     1  UNL1       -0.3786
     12 H         137.1073  140.7547  158.6177 H       1  UNL1        0.2108
     13 C         139.9285  142.5684  159.4583 C.3     1  UNL1        0.0306
     14 C         139.1033  142.3086  160.6837 C.ar    1  UNL1       -0.0238
     15 C         138.4122  140.9885  160.8566 C.ar    1  UNL1        0.0015
     16 C         137.5871  140.7286  162.0819 C.ar    1  UNL1       -0.0020
     17 C         137.4531  141.7888  163.1345 C.ar    1  UNL1        0.0060
     18 C         138.1441  143.1088  162.9618 C.ar    1  UNL1        0.0748
     19 C         138.9693  143.3687  161.7364 C.ar    1  UNL1        0.0233
     20 C         139.5301  144.7560  161.8408 C.3     1  UNL1        0.2352
     21 O         139.0516  145.3535  163.1307 O.3     1  UNL1       -0.4404
     22 C         138.1950  144.3355  163.8236 C.2     1  UNL1        0.3413
     23 O         137.5096  144.5131  165.1460 O.2     1  UNL1       -0.2449
     24 C         143.7788  138.6496  165.3880 C.3     1  UNL1        0.1131
     25 C         143.1065  139.3637  166.5229 C.ar    1  UNL1        0.0062
     26 C         143.0348  138.7209  167.8762 C.ar    1  UNL1        0.0009
     27 C         142.3625  139.4350  169.0111 C.ar    1  UNL1        0.0386
     28 C         141.7619  140.7919  168.7927 C.ar    1  UNL1        0.1672
     29 N         141.8335  141.4348  167.4393 N.ar    1  UNL1       -0.2252
     30 C         142.5058  140.7207  166.3044 C.ar    1  UNL1        0.0968
     31 N         141.0895  141.5062  169.9276 N.ar    1  UNL1       -0.1708
     32 C         140.0605  142.5902  169.8012 C.ar    1  UNL1        0.2272
     33 N         139.6632  143.0157  171.1836 N.ar    1  UNL1       -0.1044
     34 N         140.4467  142.1946  172.1643 N.ar    1  UNL1       -0.0222
     35 N         141.3282  141.2617  171.3881 N.ar    1  UNL1       -0.0371
@<TRIPOS>BOND
     1    13    14    1
     2    14    15   ar
     3    15    10    1
     4    10    11    1
     5    10     9    1
     6     9     1    1
     7     1     2    1
     8     2     3    1
     9     3     4    1
    10     4     5   am
    11     5     6    2
    12     5    24    1
    13    24    25    1
    14    25    26   ar
    15    26    27   ar
    16    27    28   ar
    17    28    31    1
    18    31    32   ar
    19    32    33   ar
    20    33    34   ar
    21    34    35   ar
    22    28    29   ar
    23    29    30   ar
    24     4     7    1
    25     7     8    1
    26    15    16   ar
    27    16    17   ar
    28    17    18   ar
    29    18    19   ar
    30    19    20    1
    31    20    21    1
    32    21    22    1
    33    22    23    2
    34    19    14   ar
    35     8     1    1
    36    22    18    1
    37    30    25   ar
    38    35    31   ar
    39    11    12    1
@<TRIPOS>MOLECULE
*****
 35 39 0 0 0
SMALL
GASTEIGER

@<TRIPOS>ATOM
      1 N         140.0658  138.7220  161.6694 N.3     1  UNL1       -0.2674
      2 C         140.0523  138.3412  163.1202 C.3     1  UNL1        0.0940
      3 C         141.2953  138.4904  163.9463 C.3     1  UNL1        0.1107
      4 N         142.5519  139.0203  163.3217 N.am    1  UNL1       -0.2764
      5 C         143.7949  139.1695  164.1478 C.2     1  UNL1        0.2302
      6 O         145.0515  139.6995  163.5232 O.2     1  UNL1       -0.2745
      7 C         142.5654  139.4012  161.8709 C.3     1  UNL1        0.1107
      8 C         141.3224  139.2520  161.0447 C.3     1  UNL1        0.0940
      9 C         138.8227  138.5728  160.8433 C.3     1  UNL1        0.1064
     10 C         137.8521  139.7114  160.7364 C.3     1  UNL1        0.1483
     11 O         136.4488  139.4595  160.2703 O.3     1  UNL1       -0.3786
     12 H         135.9570  140.2955  160.2587 H       1  UNL1        0.2108
     13 C         137.4738  140.7243  163.5349 C.3     1  UNL1        0.0306
     14 C         138.0957  141.6085  162.4949 C.ar    1  UNL1       -0.0238
     15 C         138.2849  141.1021  161.0956 C.ar    1  UNL1        0.0015
     16 C         138.9067  141.9862  160.0557 C.ar    1  UNL1       -0.0020
     17 C         139.3394  143.3768  160.4149 C.ar    1  UNL1        0.0060
     18 C         139.1502  143.8832  161.8141 C.ar    1  UNL1        0.0748
     19 C         138.5284  142.9991  162.8541 C.ar    1  UNL1        0.0233
     20 C         138.4699  143.7675  164.1410 C.3     1  UNL1        0.2352
     21 O         139.0557  145.1265  163.8963 O.3     1  UNL1       -0.4404
     22 C         139.4761  145.1981  162.4582 C.2     1  UNL1        0.3413
     23 O         140.1110  146.3774  161.7829 O.2     1  UNL1       -0.2449
     24 C         143.7815  138.7887  165.5987 C.3     1  UNL1        0.1131
     25 C         143.0381  139.6348  166.5893 C.ar    1  UNL1        0.0062
     26 C         142.6647  141.0450  166.2402 C.ar    1  UNL1        0.0009
     27 C         141.9212  141.8911  167.2307 C.ar    1  UNL1        0.0386
     28 C         141.5511  141.3271  168.5704 C.ar    1  UNL1        0.1672
     29 N         141.9244  139.9168  168.9195 N.ar    1  UNL1       -0.2252
     30 C         142.6679  139.0707  167.9290 C.ar    1  UNL1        0.0968
     31 N         140.8076  142.1732  169.5611 N.ar    1  UNL1       -0.1708
     32 C         140.4592  143.6228  169.3966 C.ar    1  UNL1        0.2272
     33 N         139.7183  144.0636  170.6241 N.ar    1  UNL1       -0.1044
     34 N         139.6087  142.8863  171.5471 N.ar    1  UNL1       -0.0222
     35 N         140.2819  141.7180  170.8902 N.ar    1  UNL1       -0.0371
@<TRIPOS>BOND
     1    13    14    1
     2    14    15   ar
     3    15    10    1
     4    10    11    1
     5    10     9    1
     6     9     1    1
     7     1     2    1
     8     2     3    1
     9     3     4    1
    10     4     5   am
    11     5     6    2
    12     5    24    1
    13    24    25    1
    14    25    26   ar
    15    26    27   ar
    16    27    28   ar
    17    28    31    1
    18    31    32   ar
    19    32    33   ar
    20    33    34   ar
    21    34    35   ar
    22    28    29   ar
    23    29    30   ar
    24     4     7    1
    25     7     8    1
    26    15    16   ar
    27    16    17   ar
    28    17    18   ar
    29    18    19   ar
    30    19    20    1
    31    20    21    1
    32    21    22    1
    33    22    23    2
    34    19    14   ar
    35     8     1    1
    36    22    18    1
    37    30    25   ar
    38    35    31   ar
    39    11    12    1
@<TRIPOS>MOLECULE
*****
 35 39 0 0 0
SMALL
GASTEIGER

@<TRIPOS>ATOM
      1 N         142.3334  142.1436  159.9059 N.3     1  UNL1       -0.2674
      2 C         141.9670  140.9304  160.7084 C.3     1  UNL1        0.0940
      3 C         142.8478  140.4842  161.8376 C.3     1  UNL1        0.1107
      4 N         144.0949  141.2510  162.1643 N.am    1  UNL1       -0.2764
      5 C         144.9756  140.8046  163.2934 C.2     1  UNL1        0.2302
      6 O         146.2227  141.5714  163.6201 O.2     1  UNL1       -0.2745
      7 C         144.4613  142.4641  161.3617 C.3     1  UNL1        0.1107
      8 C         143.5805  142.9104  160.2325 C.3     1  UNL1        0.0940
      9 C         141.4527  142.5899  158.7767 C.3     1  UNL1        0.1064
     10 C         140.3541  143.5798  159.0285 C.3     1  UNL1        0.1483
     11 O         139.7316  144.3175  157.8804 O.3     1  UNL1       -0.3786
     12 H         139.0432  144.9137  158.2143 H       1  UNL1        0.2108
     13 C         138.3882  141.7070  160.3046 C.3     1  UNL1        0.0306
     14 C         138.8952  142.8955  161.0666 C.ar    1  UNL1       -0.0238
     15 C         139.8781  143.8319  160.4285 C.ar    1  UNL1        0.0015
     16 C         140.3851  145.0203  161.1904 C.ar    1  UNL1       -0.0020
     17 C         139.9091  145.2725  162.5903 C.ar    1  UNL1        0.0060
     18 C         138.9262  144.3362  163.2284 C.ar    1  UNL1        0.0748
     19 C         138.4192  143.1477  162.4665 C.ar    1  UNL1        0.0233
     20 C         137.4614  142.4047  163.3501 C.3     1  UNL1        0.2352
     21 O         137.3765  143.1341  164.6581 O.3     1  UNL1       -0.4404
     22 C         138.2817  144.3278  164.5829 C.2     1  UNL1        0.3413
     23 O         138.5036  145.3360  165.6711 O.2     1  UNL1       -0.2449
     24 C         144.6093  139.5915  164.0961 C.3     1  UNL1        0.1131
     25 C         143.8247  139.7410  165.3657 C.ar    1  UNL1        0.0062
     26 C         143.0529  141.0006  165.6264 C.ar    1  UNL1        0.0009
     27 C         142.2683  141.1502  166.8960 C.ar    1  UNL1        0.0386
     28 C         142.2554  140.0403  167.9049 C.ar    1  UNL1        0.1672
     29 N         143.0271  138.7808  167.6442 N.ar    1  UNL1       -0.2252
     30 C         143.8118  138.6311  166.3746 C.ar    1  UNL1        0.0968
     31 N         141.4707  140.1899  169.1746 N.ar    1  UNL1       -0.1708
     32 C         141.9528  140.8397  170.4377 C.ar    1  UNL1        0.2272
     33 N         140.8462  140.7672  171.4477 N.ar    1  UNL1       -0.1044
     34 N         139.6803  140.0726  170.8088 N.ar    1  UNL1       -0.0222
     35 N         140.0662  139.7158  169.4040 N.ar    1  UNL1       -0.0371
@<TRIPOS>BOND
     1    13    14    1
     2    14    15   ar
     3    15    10    1
     4    10    11    1
     5    10     9    1
     6     9     1    1
     7     1     2    1
     8     2     3    1
     9     3     4    1
    10     4     5   am
    11     5     6    2
    12     5    24    1
    13    24    25    1
    14    25    26   ar
    15    26    27   ar
    16    27    28   ar
    17    28    31    1
    18    31    32   ar
    19    32    33   ar
    20    33    34   ar
    21    34    35   ar
    22    28    29   ar
    23    29    30   ar
    24     4     7    1
    25     7     8    1
    26    15    16   ar
    27    16    17   ar
    28    17    18   ar
    29    18    19   ar
    30    19    20    1
    31    20    21    1
    32    21    22    1
    33    22    23    2
    34    19    14   ar
    35     8     1    1
    36    22    18    1
    37    30    25   ar
    38    35    31   ar
    39    11    12    1
@<TRIPOS>MOLECULE
*****
 35 39 0 0 0
SMALL
GASTEIGER

@<TRIPOS>ATOM
      1 N         140.4073  138.9585  159.9740 N.3     1  UNL1       -0.2674
      2 C         140.5478  138.3358  161.3314 C.3     1  UNL1        0.0940
      3 C         139.6840  138.8045  162.4645 C.3     1  UNL1        0.1107
      4 N         138.6797  139.8959  162.2404 N.am    1  UNL1       -0.2764
      5 C         137.8159  140.3646  163.3736 C.2     1  UNL1        0.2302
      6 O         136.8117  141.4560  163.1494 O.2     1  UNL1       -0.2745
      7 C         138.5392  140.5186  160.8830 C.3     1  UNL1        0.1107
      8 C         139.4030  140.0499  159.7497 C.3     1  UNL1        0.0940
      9 C         141.2711  138.4898  158.8408 C.3     1  UNL1        0.1064
     10 C         142.6304  139.0899  158.6360 C.3     1  UNL1        0.1483
     11 O         143.5255  138.5672  157.5518 O.3     1  UNL1       -0.3786
     12 H         144.3604  139.0610  157.5556 H       1  UNL1        0.2108
     13 C         144.1798  138.4954  161.1353 C.3     1  UNL1        0.0306
     14 C         143.8695  139.9156  160.7652 C.ar    1  UNL1       -0.0238
     15 C         143.0948  140.2129  159.5156 C.ar    1  UNL1        0.0015
     16 C         142.7844  141.6329  159.1455 C.ar    1  UNL1       -0.0020
     17 C         143.2488  142.7558  160.0249 C.ar    1  UNL1        0.0060
     18 C         144.0235  142.4586  161.2745 C.ar    1  UNL1        0.0748
     19 C         144.3338  141.0385  161.6447 C.ar    1  UNL1        0.0233
     20 C         145.1101  141.0530  162.9281 C.3     1  UNL1        0.2352
     21 O         145.2795  142.4821  163.3512 O.3     1  UNL1       -0.4404
     22 C         144.6079  143.3508  162.3293 C.2     1  UNL1        0.3413
     23 O         144.5338  144.8487  162.3572 O.2     1  UNL1       -0.2449
     24 C         137.9564  139.7420  164.7310 C.3     1  UNL1        0.1131
     25 C         138.8778  140.3529  165.7447 C.ar    1  UNL1        0.0062
     26 C         139.0944  139.6759  167.0656 C.ar    1  UNL1        0.0009
     27 C         140.0158  140.2868  168.0793 C.ar    1  UNL1        0.0386
     28 C         140.7207  141.5747  167.7723 C.ar    1  UNL1        0.1672
     29 N         140.5041  142.2518  166.4514 N.ar    1  UNL1       -0.2252
     30 C         139.5826  141.6409  165.4376 C.ar    1  UNL1        0.0968
     31 N         141.6422  142.1858  168.7860 N.ar    1  UNL1       -0.1708
     32 C         143.1381  142.2466  168.6942 C.ar    1  UNL1        0.2272
     33 N         143.6498  142.9416  169.9210 N.ar    1  UNL1       -0.1044
     34 N         142.4701  143.3104  170.7709 N.ar    1  UNL1       -0.0222
     35 N         141.2294  142.8433  170.0694 N.ar    1  UNL1       -0.0371
@<TRIPOS>BOND
     1    13    14    1
     2    14    15   ar
     3    15    10    1
     4    10    11    1
     5    10     9    1
     6     9     1    1
     7     1     2    1
     8     2     3    1
     9     3     4    1
    10     4     5   am
    11     5     6    2
    12     5    24    1
    13    24    25    1
    14    25    26   ar
    15    26    27   ar
    16    27    28   ar
    17    28    31    1
    18    31    32   ar
    19    32    33   ar
    20    33    34   ar
    21    34    35   ar
    22    28    29   ar
    23    29    30   ar
    24     4     7    1
    25     7     8    1
    26    15    16   ar
    27    16    17   ar
    28    17    18   ar
    29    18    19   ar
    30    19    20    1
    31    20    21    1
    32    21    22    1
    33    22    23    2
    34    19    14   ar
    35     8     1    1
    36    22    18    1
    37    30    25   ar
    38    35    31   ar
    39    11    12    1
@<TRIPOS>MOLECULE
*****
 35 39 0 0 0
SMALL
GASTEIGER

@<TRIPOS>ATOM
      1 N         138.7755  140.8435  160.1490 N.3     1  UNL1       -0.2674
      2 C         137.9465  140.8219  161.3990 C.3     1  UNL1        0.0940
      3 C         138.2480  139.8285  162.4817 C.3     1  UNL1        0.1107
      4 N         139.3783  138.8567  162.3145 N.am    1  UNL1       -0.2764
      5 C         139.6796  137.8633  163.3972 C.2     1  UNL1        0.2302
      6 O         140.8099  136.8915  163.2300 O.2     1  UNL1       -0.2745
      7 C         140.2072  138.8782  161.0645 C.3     1  UNL1        0.1107
      8 C         139.9058  139.8716  159.9817 C.3     1  UNL1        0.0940
      9 C         138.4741  141.8369  159.0663 C.3     1  UNL1        0.1064
     10 C         139.3710  143.0222  158.8652 C.3     1  UNL1        0.1483
     11 O         139.2822  143.8240  157.6006 O.3     1  UNL1       -0.3786
     12 H         139.9257  144.5491  157.6316 H       1  UNL1        0.2108
     13 C         142.2267  142.1268  158.6568 C.3     1  UNL1        0.0306
     14 C         141.7847  142.9581  159.8245 C.ar    1  UNL1       -0.0238
     15 C         140.3568  143.4058  159.9288 C.ar    1  UNL1        0.0015
     16 C         139.9148  144.2371  161.0964 C.ar    1  UNL1       -0.0020
     17 C         140.9006  144.6207  162.1600 C.ar    1  UNL1        0.0060
     18 C         142.3284  144.1730  162.0558 C.ar    1  UNL1        0.0748
     19 C         142.7705  143.3417  160.8881 C.ar    1  UNL1        0.0233
     20 C         144.2324  143.0496  161.0540 C.3     1  UNL1        0.2352
     21 O         144.6938  143.7004  162.3242 O.3     1  UNL1       -0.4404
     22 C         143.5171  144.3947  162.9434 C.2     1  UNL1        0.3413
     23 O         143.5273  145.1739  164.2251 O.2     1  UNL1       -0.2449
     24 C         138.8507  137.8417  164.6472 C.3     1  UNL1        0.1131
     25 C         139.2516  138.6762  165.8274 C.ar    1  UNL1        0.0062
     26 C         138.2960  138.8714  166.9671 C.ar    1  UNL1        0.0009
     27 C         138.6968  139.7058  168.1474 C.ar    1  UNL1        0.0386
     28 C         140.0531  140.3451  168.1880 C.ar    1  UNL1        0.1672
     29 N         141.0087  140.1499  167.0484 N.ar    1  UNL1       -0.2252
     30 C         140.6079  139.3154  165.8681 C.ar    1  UNL1        0.0968
     31 N         140.4540  141.1796  169.3683 N.ar    1  UNL1       -0.1708
     32 C         141.4288  142.3195  169.3518 C.ar    1  UNL1        0.2272
     33 N         141.5276  142.8650  170.7456 N.ar    1  UNL1       -0.1044
     34 N         140.6139  142.0622  171.6234 N.ar    1  UNL1       -0.0222
     35 N         139.9504  141.0206  170.7722 N.ar    1  UNL1       -0.0371
@<TRIPOS>BOND
     1    13    14    1
     2    14    15   ar
     3    15    10    1
     4    10    11    1
     5    10     9    1
     6     9     1    1
     7     1     2    1
     8     2     3    1
     9     3     4    1
    10     4     5   am
    11     5     6    2
    12     5    24    1
    13    24    25    1
    14    25    26   ar
    15    26    27   ar
    16    27    28   ar
    17    28    31    1
    18    31    32   ar
    19    32    33   ar
    20    33    34   ar
    21    34    35   ar
    22    28    29   ar
    23    29    30   ar
    24     4     7    1
    25     7     8    1
    26    15    16   ar
    27    16    17   ar
    28    17    18   ar
    29    18    19   ar
    30    19    20    1
    31    20    21    1
    32    21    22    1
    33    22    23    2
    34    19    14   ar
    35     8     1    1
    36    22    18    1
    37    30    25   ar
    38    35    31   ar
    39    11    12    1
@<TRIPOS>MOLECULE
*****
 35 39 0 0 0
SMALL
GASTEIGER

@<TRIPOS>ATOM
      1 N         141.0845  143.4612  160.6805 N.3     1  UNL1       -0.2674
      2 C         140.1845  142.3020  160.9910 C.3     1  UNL1        0.0940
      3 C         140.6797  140.8981  160.8079 C.3     1  UNL1        0.1107
      4 N         142.0748  140.6532  160.3142 N.am    1  UNL1       -0.2764
      5 C         142.5699  139.2492  160.1311 C.2     1  UNL1        0.2302
      6 O         143.9650  139.0043  159.6374 O.2     1  UNL1       -0.2745
      7 C         142.9748  141.8123  160.0037 C.3     1  UNL1        0.1107
      8 C         142.4797  143.2164  160.1868 C.3     1  UNL1        0.0940
      9 C         140.5894  144.8652  160.8636 C.3     1  UNL1        0.1064
     10 C         140.5505  145.4740  162.2339 C.3     1  UNL1        0.1483
     11 O         140.3071  146.9454  162.3943 O.3     1  UNL1       -0.3786
     12 H         140.3129  147.1732  163.3371 H       1  UNL1        0.2108
     13 C         143.3285  144.8535  163.1814 C.3     1  UNL1        0.0306
     14 C         142.1441  144.3011  163.9177 C.ar    1  UNL1       -0.0238
     15 C         140.7550  144.6114  163.4440 C.ar    1  UNL1        0.0015
     16 C         139.5707  144.0591  164.1802 C.ar    1  UNL1       -0.0020
     17 C         139.7752  143.1965  165.3902 C.ar    1  UNL1        0.0060
     18 C         141.1642  142.8862  165.8639 C.ar    1  UNL1        0.0748
     19 C         142.3486  143.4385  165.1277 C.ar    1  UNL1        0.0233
     20 C         143.5897  142.9652  165.8247 C.3     1  UNL1        0.2352
     21 O         143.1722  142.1203  166.9917 O.3     1  UNL1       -0.4404
     22 C         141.6732  142.0715  167.0160 C.2     1  UNL1        0.3413
     23 O         140.8310  141.3369  168.0166 O.2     1  UNL1       -0.2449
     24 C         141.6700  138.0899  160.4416 C.3     1  UNL1        0.1131
     25 C         140.8999  138.0620  161.7285 C.ar    1  UNL1        0.0062
     26 C         141.6280  138.1062  163.0392 C.ar    1  UNL1        0.0009
     27 C         140.8580  138.0783  164.3262 C.ar    1  UNL1        0.0386
     28 C         139.3600  138.0061  164.3025 C.ar    1  UNL1        0.1672
     29 N         138.6319  137.9619  162.9918 N.ar    1  UNL1       -0.2252
     30 C         139.4019  137.9898  161.7048 C.ar    1  UNL1        0.0968
     31 N         138.5898  137.9782  165.5895 N.ar    1  UNL1       -0.1708
     32 C         138.4850  139.1007  166.5788 C.ar    1  UNL1        0.2272
     33 N         137.6198  138.6390  167.7137 N.ar    1  UNL1       -0.1044
     34 N         137.1898  137.2311  167.4257 N.ar    1  UNL1       -0.0222
     35 N         137.7893  136.8227  166.1129 N.ar    1  UNL1       -0.0371
@<TRIPOS>BOND
     1    13    14    1
     2    14    15   ar
     3    15    10    1
     4    10    11    1
     5    10     9    1
     6     9     1    1
     7     1     2    1
     8     2     3    1
     9     3     4    1
    10     4     5   am
    11     5     6    2
    12     5    24    1
    13    24    25    1
    14    25    26   ar
    15    26    27   ar
    16    27    28   ar
    17    28    31    1
    18    31    32   ar
    19    32    33   ar
    20    33    34   ar
    21    34    35   ar
    22    28    29   ar
    23    29    30   ar
    24     4     7    1
    25     7     8    1
    26    15    16   ar
    27    16    17   ar
    28    17    18   ar
    29    18    19   ar
    30    19    20    1
    31    20    21    1
    32    21    22    1
    33    22    23    2
    34    19    14   ar
    35     8     1    1
    36    22    18    1
    37    30    25   ar
    38    35    31   ar
    39    11    12    1
@<TRIPOS>MOLECULE
*****
 35 39 0 0 0
SMALL
GASTEIGER

@<TRIPOS>ATOM
      1 N         140.5612  140.8270  159.2013 N.3     1  UNL1       -0.2674
      2 C         139.9557  140.0047  160.3000 C.3     1  UNL1        0.0940
      3 C         139.1054  140.6614  161.3466 C.3     1  UNL1        0.1107
      4 N         138.8604  142.1403  161.2947 N.am    1  UNL1       -0.2764
      5 C         138.0100  142.7969  162.3414 C.2     1  UNL1        0.2302
      6 O         137.7651  144.2759  162.2894 O.2     1  UNL1       -0.2745
      7 C         139.4659  142.9627  160.1959 C.3     1  UNL1        0.1107
      8 C         140.3163  142.3061  159.1492 C.3     1  UNL1        0.0940
      9 C         141.4116  140.1704  158.1546 C.3     1  UNL1        0.1064
     10 C         142.8650  139.9131  158.4220 C.3     1  UNL1        0.1483
     11 O         143.7099  139.2351  157.3846 O.3     1  UNL1       -0.3786
     12 H         144.6178  139.1464  157.7144 H       1  UNL1        0.2108
     13 C         143.0867  137.9467  160.6769 C.3     1  UNL1        0.0306
     14 C         143.5843  139.3506  160.8544 C.ar    1  UNL1       -0.0238
     15 C         143.4734  140.3338  159.7270 C.ar    1  UNL1        0.0015
     16 C         143.9710  141.7376  159.9045 C.ar    1  UNL1       -0.0020
     17 C         144.5794  142.1584  161.2094 C.ar    1  UNL1        0.0060
     18 C         144.6902  141.1752  162.3368 C.ar    1  UNL1        0.0748
     19 C         144.1927  139.7713  162.1594 C.ar    1  UNL1        0.0233
     20 C         144.4338  139.0286  163.4401 C.3     1  UNL1        0.2352
     21 O         145.0804  139.9735  164.4091 O.3     1  UNL1       -0.4404
     22 C         145.2389  141.3002  163.7273 C.2     1  UNL1        0.3413
     23 O         145.8405  142.5350  164.3301 O.2     1  UNL1       -0.2449
     24 C         137.4045  141.9746  163.4401 C.3     1  UNL1        0.1131
     25 C         138.2597  141.4913  164.5736 C.ar    1  UNL1        0.0062
     26 C         138.1243  140.0812  165.0669 C.ar    1  UNL1        0.0009
     27 C         138.9796  139.5978  166.2004 C.ar    1  UNL1        0.0386
     28 C         139.9702  140.5244  166.8406 C.ar    1  UNL1        0.1672
     29 N         140.1056  141.9345  166.3474 N.ar    1  UNL1       -0.2252
     30 C         139.2504  142.4180  165.2139 C.ar    1  UNL1        0.0968
     31 N         140.8255  140.0411  167.9742 N.ar    1  UNL1       -0.1708
     32 C         142.2897  139.7235  167.9008 C.ar    1  UNL1        0.2272
     33 N         142.7358  139.2766  169.2614 N.ar    1  UNL1       -0.1044
     34 N         141.5473  139.3180  170.1756 N.ar    1  UNL1       -0.0222
     35 N         140.3667  139.7904  169.3801 N.ar    1  UNL1       -0.0371
@<TRIPOS>BOND
     1    13    14    1
     2    14    15   ar
     3    15    10    1
     4    10    11    1
     5    10     9    1
     6     9     1    1
     7     1     2    1
     8     2     3    1
     9     3     4    1
    10     4     5   am
    11     5     6    2
    12     5    24    1
    13    24    25    1
    14    25    26   ar
    15    26    27   ar
    16    27    28   ar
    17    28    31    1
    18    31    32   ar
    19    32    33   ar
    20    33    34   ar
    21    34    35   ar
    22    28    29   ar
    23    29    30   ar
    24     4     7    1
    25     7     8    1
    26    15    16   ar
    27    16    17   ar
    28    17    18   ar
    29    18    19   ar
    30    19    20    1
    31    20    21    1
    32    21    22    1
    33    22    23    2
    34    19    14   ar
    35     8     1    1
    36    22    18    1
    37    30    25   ar
    38    35    31   ar
    39    11    12    1
