@<TRIPOS>MOLECULE
*****
 33 37 0 0 0
SMALL
GASTEIGER

@<TRIPOS>ATOM
      1 N         143.9685  141.9053  164.4022 N.3     1  UNL1       -0.2724
      2 C         144.0798  140.5272  163.8205 C.3     1  UNL1        0.0724
      3 C         143.5820  139.5503  164.8442 C.3     1  UNL1        0.0214
      4 C         143.0370  138.8302  166.0419 C.3     1  UNL1        0.0072
      5 C         143.1630  140.3248  166.0586 C.3     1  UNL1        0.0350
      6 C         143.4019  141.7802  165.7854 C.3     1  UNL1        0.0761
      7 C         142.6227  140.5121  167.4453 C.ar    1  UNL1       -0.0214
      8 C         142.5099  139.3375  168.3713 C.ar    1  UNL1       -0.0020
      9 C         141.9696  139.5248  169.7581 C.ar    1  UNL1        0.0293
     10 C         141.5421  140.8868  170.2188 C.ar    1  UNL1        0.1440
     11 F         141.0018  141.0742  171.6055 F       1  UNL1       -0.2042
     12 C         141.6549  142.0615  169.2927 C.ar    1  UNL1        0.0985
     13 C         142.1952  141.8741  167.9060 C.ar    1  UNL1        0.0019
     14 C         141.2274  143.4235  169.7534 C.3     1  UNL1        0.4207
     15 F         140.7999  144.7854  170.2140 F       1  UNL1       -0.1658
     16 F         139.9178  143.2531  169.0420 F       1  UNL1       -0.1658
     17 F         142.5369  143.5940  170.4647 F       1  UNL1       -0.1658
     18 C         144.3559  143.1840  163.7204 C.3     1  UNL1        0.0730
     19 C         143.6743  144.4678  164.0909 C.3     1  UNL1        0.0294
     20 C         142.6446  145.0615  163.1758 C.3     1  UNL1        0.0666
     21 S         141.1859  144.9193  163.4956 S.3     1  UNL1       -0.0756
     22 C         140.0521  141.3105  164.3649 C.ar    1  UNL1        0.2029
     23 N         139.6939  142.0387  165.6264 N.ar    1  UNL1       -0.1250
     24 N         140.0750  143.4791  165.4543 N.ar    1  UNL1       -0.1220
     25 C         140.6688  143.6412  164.0865 C.ar    1  UNL1        0.1933
     26 N         140.6547  142.3009  163.4132 N.ar    1  UNL1       -0.2860
     27 C         141.1552  142.0034  162.0308 C.3     1  UNL1        0.1341
     28 C         138.0921  139.3175  166.0490 C.3     1  UNL1        0.0556
     29 C         138.9435  138.9324  164.8755 C.ar    1  UNL1        0.1001
     30 N         139.0433  137.5636  164.2701 N.ar    1  UNL1       -0.2085
     31 C         140.0059  137.6338  163.1219 C.ar    1  UNL1        0.2849
     32 O         140.5010  139.0458  163.0177 O.2     1  UNL1       -0.4283
     33 C         139.8443  139.8484  164.1015 C.ar    1  UNL1        0.1964
@<TRIPOS>BOND
     1    28    29    1
     2    29    30   ar
     3    30    31   ar
     4    31    32   ar
     5    32    33   ar
     6    33    22    1
     7    22    23   ar
     8    23    24   ar
     9    24    25   ar
    10    25    21    1
    11    21    20    1
    12    20    19    1
    13    19    18    1
    14    18     1    1
    15     1     2    1
    16     2     3    1
    17     3     4    1
    18     4     5    1
    19     5     7    1
    20     7     8   ar
    21     8     9   ar
    22     9    10   ar
    23    10    11    1
    24    10    12   ar
    25    12    14    1
    26    14    15    1
    27    14    16    1
    28    14    17    1
    29    12    13   ar
    30     5     6    1
    31    25    26   ar
    32    26    27    1
    33    33    29   ar
    34    26    22   ar
    35     6     1    1
    36     5     3    1
    37    13     7   ar
@<TRIPOS>MOLECULE
*****
 33 37 0 0 0
SMALL
GASTEIGER

@<TRIPOS>ATOM
      1 N         142.7142  144.3168  163.7280 N.3     1  UNL1       -0.2724
      2 C         143.9281  143.9798  162.9138 C.3     1  UNL1        0.0724
      3 C         144.5652  142.7616  163.5140 C.3     1  UNL1        0.0214
      4 C         144.9661  141.5615  164.3196 C.3     1  UNL1        0.0072
      5 C         143.7451  142.3458  164.6991 C.3     1  UNL1        0.0350
      6 C         142.6011  143.3069  164.8313 C.3     1  UNL1        0.0761
      7 C         143.3767  141.4998  165.8817 C.ar    1  UNL1       -0.0214
      8 C         143.1942  140.0201  165.7177 C.ar    1  UNL1       -0.0020
      9 C         142.8258  139.1741  166.9004 C.ar    1  UNL1        0.0293
     10 C         142.6400  139.8080  168.2471 C.ar    1  UNL1        0.1440
     11 F         142.2716  138.9621  169.4298 F       1  UNL1       -0.2042
     12 C         142.8225  141.2878  168.4112 C.ar    1  UNL1        0.0985
     13 C         143.1909  142.1337  167.2285 C.ar    1  UNL1        0.0019
     14 C         142.6367  141.9217  169.7579 C.3     1  UNL1        0.4207
     15 F         142.4508  142.5555  171.1046 F       1  UNL1       -0.1658
     16 F         144.1092  142.1979  169.8311 F       1  UNL1       -0.1658
     17 F         141.1641  141.6455  169.6847 F       1  UNL1       -0.1658
     18 C         141.7778  145.4625  163.4820 C.3     1  UNL1        0.0730
     19 C         140.5023  145.2394  162.7248 C.3     1  UNL1        0.0294
     20 C         140.5432  144.9682  161.2501 C.3     1  UNL1        0.0666
     21 S         139.9977  143.6798  160.7090 S.3     1  UNL1       -0.0756
     22 C         138.4285  141.0638  163.1088 C.ar    1  UNL1        0.2029
     23 N         137.2178  141.8549  162.7107 N.ar    1  UNL1       -0.1250
     24 N         137.6583  142.9311  161.7633 N.ar    1  UNL1       -0.1220
     25 C         139.1412  142.8052  161.5759 C.ar    1  UNL1        0.1933
     26 N         139.6172  141.6512  162.4075 N.ar    1  UNL1       -0.2860
     27 C         141.0333  141.1691  162.5182 C.3     1  UNL1        0.1341
     28 C         139.0920  137.9733  162.2976 C.3     1  UNL1        0.0556
     29 C         138.7521  138.4708  163.6713 C.ar    1  UNL1        0.1001
     30 N         138.6576  137.6350  164.9133 N.ar    1  UNL1       -0.2085
     31 C         138.2942  138.5390  166.0537 C.ar    1  UNL1        0.2849
     32 O         138.1641  139.9334  165.5166 O.2     1  UNL1       -0.4283
     33 C         138.4472  139.8912  164.0442 C.ar    1  UNL1        0.1964
@<TRIPOS>BOND
     1    28    29    1
     2    29    30   ar
     3    30    31   ar
     4    31    32   ar
     5    32    33   ar
     6    33    22    1
     7    22    23   ar
     8    23    24   ar
     9    24    25   ar
    10    25    21    1
    11    21    20    1
    12    20    19    1
    13    19    18    1
    14    18     1    1
    15     1     2    1
    16     2     3    1
    17     3     4    1
    18     4     5    1
    19     5     7    1
    20     7     8   ar
    21     8     9   ar
    22     9    10   ar
    23    10    11    1
    24    10    12   ar
    25    12    14    1
    26    14    15    1
    27    14    16    1
    28    14    17    1
    29    12    13   ar
    30     5     6    1
    31    25    26   ar
    32    26    27    1
    33    33    29   ar
    34    26    22   ar
    35     6     1    1
    36     5     3    1
    37    13     7   ar
@<TRIPOS>MOLECULE
*****
 33 37 0 0 0
SMALL
GASTEIGER

@<TRIPOS>ATOM
      1 N         143.3740  139.4765  164.8828 N.3     1  UNL1       -0.2724
      2 C         142.2388  138.8440  164.1336 C.3     1  UNL1        0.0724
      3 C         141.0037  138.9630  164.9765 C.3     1  UNL1        0.0214
      4 C         139.9604  139.2256  166.0216 C.3     1  UNL1        0.0072
      5 C         141.3756  139.6690  166.2466 C.3     1  UNL1        0.0350
      6 C         142.8405  139.9864  166.1887 C.3     1  UNL1        0.0761
      7 C         141.1379  140.2715  167.5995 C.ar    1  UNL1       -0.0214
      8 C         139.8766  139.9589  168.3487 C.ar    1  UNL1       -0.0020
      9 C         139.6389  140.5614  169.7017 C.ar    1  UNL1        0.0293
     10 C         140.6626  141.4766  170.3055 C.ar    1  UNL1        0.1440
     11 F         140.4249  142.0792  171.6584 F       1  UNL1       -0.2042
     12 C         141.9240  141.7893  169.5562 C.ar    1  UNL1        0.0985
     13 C         142.1616  141.1868  168.2033 C.ar    1  UNL1        0.0019
     14 C         142.9476  142.7045  170.1599 C.3     1  UNL1        0.4207
     15 F         143.9713  143.6197  170.7636 F       1  UNL1       -0.1658
     16 F         141.9488  143.8236  170.1570 F       1  UNL1       -0.1658
     17 F         143.9465  141.5854  170.1629 F       1  UNL1       -0.1658
     18 C         144.7934  139.5808  164.4093 C.3     1  UNL1        0.0730
     19 C         145.1293  140.4461  163.2309 C.3     1  UNL1        0.0294
     20 C         145.5400  141.8734  163.4413 C.3     1  UNL1        0.0666
     21 S         144.5673  142.9819  163.1669 S.3     1  UNL1       -0.0756
     22 C         140.7697  142.3540  163.6657 C.ar    1  UNL1        0.2029
     23 N         141.1330  142.9887  164.9753 N.ar    1  UNL1       -0.1250
     24 N         142.5998  143.3012  164.9479 N.ar    1  UNL1       -0.1220
     25 C         143.1431  142.8596  163.6213 C.ar    1  UNL1        0.1933
     26 N         142.0120  142.2741  162.8289 N.ar    1  UNL1       -0.2860
     27 C         142.1066  141.7082  161.4429 C.3     1  UNL1        0.1341
     28 C         137.9907  144.0369  163.9733 C.3     1  UNL1        0.0556
     29 C         138.1266  142.6554  163.4049 C.ar    1  UNL1        0.1001
     30 N         137.0089  141.8050  162.8782 N.ar    1  UNL1       -0.2085
     31 C         137.5955  140.5058  162.4112 C.ar    1  UNL1        0.2849
     32 O         139.0756  140.5533  162.6494 O.2     1  UNL1       -0.4283
     33 C         139.4038  141.8819  163.2635 C.ar    1  UNL1        0.1964
@<TRIPOS>BOND
     1    28    29    1
     2    29    30   ar
     3    30    31   ar
     4    31    32   ar
     5    32    33   ar
     6    33    22    1
     7    22    23   ar
     8    23    24   ar
     9    24    25   ar
    10    25    21    1
    11    21    20    1
    12    20    19    1
    13    19    18    1
    14    18     1    1
    15     1     2    1
    16     2     3    1
    17     3     4    1
    18     4     5    1
    19     5     7    1
    20     7     8   ar
    21     8     9   ar
    22     9    10   ar
    23    10    11    1
    24    10    12   ar
    25    12    14    1
    26    14    15    1
    27    14    16    1
    28    14    17    1
    29    12    13   ar
    30     5     6    1
    31    25    26   ar
    32    26    27    1
    33    33    29   ar
    34    26    22   ar
    35     6     1    1
    36     5     3    1
    37    13     7   ar
@<TRIPOS>MOLECULE
*****
 33 37 0 0 0
SMALL
GASTEIGER

@<TRIPOS>ATOM
      1 N         140.4786  143.8850  161.9369 N.3     1  UNL1       -0.2724
      2 C         140.8011  145.2277  162.5227 C.3     1  UNL1        0.0724
      3 C         142.0039  145.0717  163.4052 C.3     1  UNL1        0.0214
      4 C         143.1912  144.6149  164.2000 C.3     1  UNL1        0.0072
      5 C         142.4249  143.6325  163.3648 C.3     1  UNL1        0.0350
      6 C         141.4822  142.8991  162.4574 C.3     1  UNL1        0.0761
      7 C         143.2682  142.4412  163.7108 C.ar    1  UNL1       -0.0214
      8 C         144.7640  142.5425  163.6649 C.ar    1  UNL1       -0.0020
      9 C         145.6074  141.3512  164.0109 C.ar    1  UNL1        0.0293
     10 C         144.9549  140.0586  164.4026 C.ar    1  UNL1        0.1440
     11 F         145.7982  138.8674  164.7485 F       1  UNL1       -0.2042
     12 C         143.4589  139.9574  164.4484 C.ar    1  UNL1        0.0985
     13 C         142.6156  141.1486  164.1025 C.ar    1  UNL1        0.0019
     14 C         142.8064  138.6648  164.8401 C.3     1  UNL1        0.4207
     15 F         142.1539  137.3723  165.2318 F       1  UNL1       -0.1658
     16 F         143.2190  138.8882  166.2648 F       1  UNL1       -0.1658
     17 F         142.3938  138.4413  163.4154 F       1  UNL1       -0.1658
     18 C         139.3507  143.5815  160.9958 C.3     1  UNL1        0.0730
     19 C         138.1353  142.8554  161.4913 C.3     1  UNL1        0.0294
     20 C         138.2881  141.6556  162.3786 C.3     1  UNL1        0.0666
     21 S         137.8029  141.7052  163.7971 S.3     1  UNL1       -0.0756
     22 C         140.3034  141.6531  166.7652 C.ar    1  UNL1        0.2029
     23 N         140.2135  143.1245  166.4878 N.ar    1  UNL1       -0.1250
     24 N         139.2659  143.3231  165.3423 N.ar    1  UNL1       -0.1220
     25 C         138.7701  141.9745  164.9116 C.ar    1  UNL1        0.1933
     26 N         139.4114  140.9424  165.7911 N.ar    1  UNL1       -0.2860
     27 C         139.1980  139.4598  165.7105 C.3     1  UNL1        0.1341
     28 C         143.3896  142.4113  167.5072 C.3     1  UNL1        0.0556
     29 C         142.5573  141.3546  168.1710 C.ar    1  UNL1        0.1001
     30 N         142.9975  140.4608  169.2923 N.ar    1  UNL1       -0.2085
     31 C         141.8510  139.5599  169.6443 C.ar    1  UNL1        0.2849
     32 O         140.7023  139.8969  168.7406 O.2     1  UNL1       -0.4283
     33 C         141.1389  141.0060  167.8300 C.ar    1  UNL1        0.1964
@<TRIPOS>BOND
     1    28    29    1
     2    29    30   ar
     3    30    31   ar
     4    31    32   ar
     5    32    33   ar
     6    33    22    1
     7    22    23   ar
     8    23    24   ar
     9    24    25   ar
    10    25    21    1
    11    21    20    1
    12    20    19    1
    13    19    18    1
    14    18     1    1
    15     1     2    1
    16     2     3    1
    17     3     4    1
    18     4     5    1
    19     5     7    1
    20     7     8   ar
    21     8     9   ar
    22     9    10   ar
    23    10    11    1
    24    10    12   ar
    25    12    14    1
    26    14    15    1
    27    14    16    1
    28    14    17    1
    29    12    13   ar
    30     5     6    1
    31    25    26   ar
    32    26    27    1
    33    33    29   ar
    34    26    22   ar
    35     6     1    1
    36     5     3    1
    37    13     7   ar
@<TRIPOS>MOLECULE
*****
 33 37 0 0 0
SMALL
GASTEIGER

@<TRIPOS>ATOM
      1 N         138.0474  140.4250  163.0573 N.3     1  UNL1       -0.2724
      2 C         137.9828  139.1124  162.3342 C.3     1  UNL1        0.0724
      3 C         138.9287  138.1641  163.0095 C.3     1  UNL1        0.0214
      4 C         139.9320  137.4595  163.8737 C.3     1  UNL1        0.0072
      5 C         139.5780  138.8907  164.1499 C.3     1  UNL1        0.0350
      6 C         139.0333  140.2880  164.1795 C.3     1  UNL1        0.0761
      7 C         140.4899  139.0529  165.3298 C.ar    1  UNL1       -0.0214
      8 C         139.9725  139.6617  166.5993 C.ar    1  UNL1       -0.0020
      9 C         140.8844  139.8239  167.7793 C.ar    1  UNL1        0.0293
     10 C         142.3136  139.3772  167.6897 C.ar    1  UNL1        0.1440
     11 F         143.2255  139.5394  168.8696 F       1  UNL1       -0.2042
     12 C         142.8309  138.7684  166.4201 C.ar    1  UNL1        0.0985
     13 C         141.9190  138.6062  165.2402 C.ar    1  UNL1        0.0019
     14 C         144.2600  138.3217  166.3305 C.3     1  UNL1        0.4207
     15 F         145.6891  137.8751  166.2408 F       1  UNL1       -0.1658
     16 F         144.5092  139.3352  165.2531 F       1  UNL1       -0.1658
     17 F         144.0109  137.3082  167.4079 F       1  UNL1       -0.1658
     18 C         137.2637  141.6582  162.7179 C.3     1  UNL1        0.0730
     19 C         137.9784  142.9132  162.3130 C.3     1  UNL1        0.0294
     20 C         137.7458  144.1866  163.0709 C.3     1  UNL1        0.0666
     21 S         138.8421  144.7693  163.9128 S.3     1  UNL1       -0.0756
     22 C         142.1379  142.7352  164.1672 C.ar    1  UNL1        0.2029
     23 N         141.5727  142.5445  165.5434 N.ar    1  UNL1       -0.1250
     24 N         140.2693  143.2833  165.6156 N.ar    1  UNL1       -0.1220
     25 C         140.0290  143.9305  164.2840 C.ar    1  UNL1        0.1933
     26 N         141.1839  143.5918  163.3888 N.ar    1  UNL1       -0.2860
     27 C         141.3547  144.0324  161.9652 C.3     1  UNL1        0.1341
     28 C         142.4511  140.3497  161.9624 C.3     1  UNL1        0.0556
     29 C         143.5744  141.0723  162.6452 C.ar    1  UNL1        0.1001
     30 N         145.0388  140.8252  162.4344 N.ar    1  UNL1       -0.2085
     31 C         145.7999  141.7690  163.3175 C.ar    1  UNL1        0.2849
     32 O         144.8059  142.5993  164.0741 O.2     1  UNL1       -0.4283
     33 C         143.4305  142.1687  163.6585 C.ar    1  UNL1        0.1964
@<TRIPOS>BOND
     1    28    29    1
     2    29    30   ar
     3    30    31   ar
     4    31    32   ar
     5    32    33   ar
     6    33    22    1
     7    22    23   ar
     8    23    24   ar
     9    24    25   ar
    10    25    21    1
    11    21    20    1
    12    20    19    1
    13    19    18    1
    14    18     1    1
    15     1     2    1
    16     2     3    1
    17     3     4    1
    18     4     5    1
    19     5     7    1
    20     7     8   ar
    21     8     9   ar
    22     9    10   ar
    23    10    11    1
    24    10    12   ar
    25    12    14    1
    26    14    15    1
    27    14    16    1
    28    14    17    1
    29    12    13   ar
    30     5     6    1
    31    25    26   ar
    32    26    27    1
    33    33    29   ar
    34    26    22   ar
    35     6     1    1
    36     5     3    1
    37    13     7   ar
@<TRIPOS>MOLECULE
*****
 33 37 0 0 0
SMALL
GASTEIGER

@<TRIPOS>ATOM
      1 N         144.0750  140.3182  163.0991 N.3     1  UNL1       -0.2724
      2 C         145.1812  141.0780  163.7692 C.3     1  UNL1        0.0724
      3 C         144.6622  142.4414  164.1180 C.3     1  UNL1        0.0214
      4 C         143.8775  143.7010  164.3362 C.3     1  UNL1        0.0072
      5 C         143.2351  142.5243  163.6635 C.3     1  UNL1        0.0350
      6 C         142.8722  141.2121  163.0338 C.3     1  UNL1        0.0761
      7 C         141.8980  143.1722  163.4575 C.ar    1  UNL1       -0.0214
      8 C         141.8035  144.6596  163.2884 C.ar    1  UNL1       -0.0020
      9 C         140.4663  145.3076  163.0824 C.ar    1  UNL1        0.0293
     10 C         139.2238  144.4680  163.0456 C.ar    1  UNL1        0.1440
     11 F         137.8867  145.1159  162.8396 F       1  UNL1       -0.2042
     12 C         139.3184  142.9805  163.2147 C.ar    1  UNL1        0.0985
     13 C         140.6555  142.3326  163.4206 C.ar    1  UNL1        0.0019
     14 C         138.0759  142.1410  163.1778 C.3     1  UNL1        0.4207
     15 F         136.8335  141.3015  163.1409 F       1  UNL1       -0.1658
     16 F         137.8665  142.3866  164.6427 F       1  UNL1       -0.1658
     17 F         138.2853  141.8953  161.7129 F       1  UNL1       -0.1658
     18 C         144.1571  138.9116  162.5847 C.3     1  UNL1        0.0730
     19 C         143.1766  138.4306  161.5565 C.3     1  UNL1        0.0294
     20 C         141.7433  138.2028  161.9356 C.3     1  UNL1        0.0666
     21 S         141.4079  137.5606  163.2491 S.3     1  UNL1       -0.0756
     22 C         139.7110  139.4464  166.1866 C.ar    1  UNL1        0.2029
     23 N         138.5520  139.2623  165.2523 N.ar    1  UNL1       -0.1250
     24 N         139.0466  138.5335  164.0382 N.ar    1  UNL1       -0.1220
     25 C         140.5113  138.2671  164.2221 C.ar    1  UNL1        0.1933
     26 N         140.9218  138.8313  165.5500 N.ar    1  UNL1       -0.2860
     27 C         142.3012  138.7880  166.1378 C.3     1  UNL1        0.1341
     28 C         141.0781  142.3161  166.9252 C.3     1  UNL1        0.0556
     29 C         140.2951  141.4451  167.8625 C.ar    1  UNL1        0.1001
     30 N         140.0031  141.7404  169.3039 N.ar    1  UNL1       -0.2085
     31 C         139.1943  140.6039  169.8552 C.ar    1  UNL1        0.2849
     32 O         138.9864  139.6062  168.7546 O.2     1  UNL1       -0.4283
     33 C         139.6668  140.1262  167.5231 C.ar    1  UNL1        0.1964
@<TRIPOS>BOND
     1    28    29    1
     2    29    30   ar
     3    30    31   ar
     4    31    32   ar
     5    32    33   ar
     6    33    22    1
     7    22    23   ar
     8    23    24   ar
     9    24    25   ar
    10    25    21    1
    11    21    20    1
    12    20    19    1
    13    19    18    1
    14    18     1    1
    15     1     2    1
    16     2     3    1
    17     3     4    1
    18     4     5    1
    19     5     7    1
    20     7     8   ar
    21     8     9   ar
    22     9    10   ar
    23    10    11    1
    24    10    12   ar
    25    12    14    1
    26    14    15    1
    27    14    16    1
    28    14    17    1
    29    12    13   ar
    30     5     6    1
    31    25    26   ar
    32    26    27    1
    33    33    29   ar
    34    26    22   ar
    35     6     1    1
    36     5     3    1
    37    13     7   ar
@<TRIPOS>MOLECULE
*****
 33 37 0 0 0
SMALL
GASTEIGER

@<TRIPOS>ATOM
      1 N         144.1896  141.7513  164.2199 N.3     1  UNL1       -0.2724
      2 C         144.0854  140.3802  163.6206 C.3     1  UNL1        0.0724
      3 C         143.3642  139.5005  164.5983 C.3     1  UNL1        0.0214
      4 C         142.6329  138.8803  165.7518 C.3     1  UNL1        0.0072
      5 C         143.0227  140.3279  165.8020 C.3     1  UNL1        0.0350
      6 C         143.5328  141.7190  165.5681 C.3     1  UNL1        0.0761
      7 C         142.4475  140.5982  167.1606 C.ar    1  UNL1       -0.0214
      8 C         141.2750  139.8013  167.6507 C.ar    1  UNL1       -0.0020
      9 C         140.6997  140.0716  169.0095 C.ar    1  UNL1        0.0293
     10 C         141.2969  141.1388  169.8780 C.ar    1  UNL1        0.1440
     11 F         140.7216  141.4091  171.2367 F       1  UNL1       -0.2042
     12 C         142.4694  141.9358  169.3878 C.ar    1  UNL1        0.0985
     13 C         143.0447  141.6655  168.0292 C.ar    1  UNL1        0.0019
     14 C         143.0666  143.0031  170.2564 C.3     1  UNL1        0.4207
     15 F         143.6637  144.0703  171.1249 F       1  UNL1       -0.1658
     16 F         144.3633  142.2498  170.2904 F       1  UNL1       -0.1658
     17 F         141.7699  143.7563  170.2223 F       1  UNL1       -0.1658
     18 C         144.8369  142.9452  163.5829 C.3     1  UNL1        0.0730
     19 C         143.9901  144.0065  162.9453 C.3     1  UNL1        0.0294
     20 C         143.1609  144.9184  163.8002 C.3     1  UNL1        0.0666
     21 S         141.6648  144.8898  163.6955 S.3     1  UNL1       -0.0756
     22 C         139.8531  141.4793  164.0839 C.ar    1  UNL1        0.2029
     23 N         139.6282  142.0829  165.4386 N.ar    1  UNL1       -0.1250
     24 N         140.2795  143.4339  165.4580 N.ar    1  UNL1       -0.1220
     25 C         140.9069  143.6654  164.1153 C.ar    1  UNL1        0.1933
     26 N         140.6433  142.4573  163.2661 N.ar    1  UNL1       -0.2860
     27 C         141.0914  142.2617  161.8480 C.3     1  UNL1        0.1341
     28 C         137.6175  140.9245  161.7721 C.3     1  UNL1        0.0556
     29 C         138.3445  139.8789  162.5647 C.ar    1  UNL1        0.1001
     30 N         138.1716  138.3946  162.4338 N.ar    1  UNL1       -0.2085
     31 C         139.0922  137.7324  163.4155 C.ar    1  UNL1        0.2849
     32 O         139.8341  138.8072  164.1531 O.2     1  UNL1       -0.4283
     33 C         139.3720  140.1339  163.6272 C.ar    1  UNL1        0.1964
@<TRIPOS>BOND
     1    28    29    1
     2    29    30   ar
     3    30    31   ar
     4    31    32   ar
     5    32    33   ar
     6    33    22    1
     7    22    23   ar
     8    23    24   ar
     9    24    25   ar
    10    25    21    1
    11    21    20    1
    12    20    19    1
    13    19    18    1
    14    18     1    1
    15     1     2    1
    16     2     3    1
    17     3     4    1
    18     4     5    1
    19     5     7    1
    20     7     8   ar
    21     8     9   ar
    22     9    10   ar
    23    10    11    1
    24    10    12   ar
    25    12    14    1
    26    14    15    1
    27    14    16    1
    28    14    17    1
    29    12    13   ar
    30     5     6    1
    31    25    26   ar
    32    26    27    1
    33    33    29   ar
    34    26    22   ar
    35     6     1    1
    36     5     3    1
    37    13     7   ar
@<TRIPOS>MOLECULE
*****
 33 37 0 0 0
SMALL
GASTEIGER

@<TRIPOS>ATOM
      1 N         140.7143  138.3671  163.4752 N.3     1  UNL1       -0.2724
      2 C         142.0454  138.8683  162.9989 C.3     1  UNL1        0.0724
      3 C         142.7422  139.5104  164.1618 C.3     1  UNL1        0.0214
      4 C         143.1797  140.0723  165.4819 C.3     1  UNL1        0.0072
      5 C         141.8416  139.4061  165.3568 C.3     1  UNL1        0.0350
      6 C         140.5883  138.6995  164.9325 C.3     1  UNL1        0.0761
      7 C         141.4359  139.5992  166.7879 C.ar    1  UNL1       -0.0214
      8 C         140.0254  139.9850  167.1221 C.ar    1  UNL1       -0.0020
      9 C         139.6196  140.1781  168.5532 C.ar    1  UNL1        0.0293
     10 C         140.6244  139.9853  169.6502 C.ar    1  UNL1        0.1440
     11 F         140.2187  140.1784  171.0813 F       1  UNL1       -0.2042
     12 C         142.0349  139.5995  169.3160 C.ar    1  UNL1        0.0985
     13 C         142.4407  139.4065  167.8849 C.ar    1  UNL1        0.0019
     14 C         143.0397  139.4068  170.4130 C.3     1  UNL1        0.4207
     15 F         144.0444  139.2141  171.5099 F       1  UNL1       -0.1658
     16 F         143.3168  140.8810  170.4182 F       1  UNL1       -0.1658
     17 F         142.7627  137.9326  170.4078 F       1  UNL1       -0.1658
     18 C         139.6891  137.6581  162.6408 C.3     1  UNL1        0.0730
     19 C         139.1808  138.2908  161.3794 C.3     1  UNL1        0.0294
     20 C         137.8476  138.9780  161.3695 C.3     1  UNL1        0.0666
     21 S         137.7704  140.4677  161.5282 S.3     1  UNL1       -0.0756
     22 C         140.9140  142.3829  162.7587 C.ar    1  UNL1        0.2029
     23 N         140.1249  142.2743  164.0297 N.ar    1  UNL1       -0.1250
     24 N         138.8513  141.5436  163.7235 N.ar    1  UNL1       -0.1220
     25 C         138.8532  141.2007  162.2632 C.ar    1  UNL1        0.1933
     26 N         140.1281  141.7194  161.6670 N.ar    1  UNL1       -0.2860
     27 C         140.5440  141.5962  160.2311 C.3     1  UNL1        0.1341
     28 C         141.6229  145.4852  163.4820 C.3     1  UNL1        0.0556
     29 C         142.5798  144.4657  162.9387 C.ar    1  UNL1        0.1001
     30 N         144.0305  144.6932  162.6326 N.ar    1  UNL1       -0.2085
     31 C         144.6012  143.4079  162.1109 C.ar    1  UNL1        0.2849
     32 O         143.5033  142.3860  162.0947 O.2     1  UNL1       -0.4283
     33 C         142.2540  143.0398  162.6063 C.ar    1  UNL1        0.1964
@<TRIPOS>BOND
     1    28    29    1
     2    29    30   ar
     3    30    31   ar
     4    31    32   ar
     5    32    33   ar
     6    33    22    1
     7    22    23   ar
     8    23    24   ar
     9    24    25   ar
    10    25    21    1
    11    21    20    1
    12    20    19    1
    13    19    18    1
    14    18     1    1
    15     1     2    1
    16     2     3    1
    17     3     4    1
    18     4     5    1
    19     5     7    1
    20     7     8   ar
    21     8     9   ar
    22     9    10   ar
    23    10    11    1
    24    10    12   ar
    25    12    14    1
    26    14    15    1
    27    14    16    1
    28    14    17    1
    29    12    13   ar
    30     5     6    1
    31    25    26   ar
    32    26    27    1
    33    33    29   ar
    34    26    22   ar
    35     6     1    1
    36     5     3    1
    37    13     7   ar
@<TRIPOS>MOLECULE
*****
 33 37 0 0 0
SMALL
GASTEIGER

@<TRIPOS>ATOM
      1 N         142.9431  143.4698  162.5126 N.3     1  UNL1       -0.2724
      2 C         144.3269  143.1685  162.0184 C.3     1  UNL1        0.0724
      3 C         144.9887  142.2645  163.0158 C.3     1  UNL1        0.0214
      4 C         145.3782  141.3850  164.1668 C.3     1  UNL1        0.0072
      5 C         144.0139  142.0071  164.1264 C.3     1  UNL1        0.0350
      6 C         142.7496  142.7520  163.8154 C.3     1  UNL1        0.0761
      7 C         143.5352  141.4193  165.4208 C.ar    1  UNL1       -0.0214
      8 C         143.2307  139.9534  165.5116 C.ar    1  UNL1       -0.0020
      9 C         142.7519  139.3656  166.8060 C.ar    1  UNL1        0.0293
     10 C         142.5777  140.2438  168.0095 C.ar    1  UNL1        0.1440
     11 F         142.0990  139.6560  169.3039 F       1  UNL1       -0.2042
     12 C         142.8822  141.7098  167.9186 C.ar    1  UNL1        0.0985
     13 C         143.3609  142.2975  166.6243 C.ar    1  UNL1        0.0019
     14 C         142.7080  142.5880  169.1221 C.3     1  UNL1        0.4207
     15 F         142.5337  143.4662  170.3256 F       1  UNL1       -0.1658
     16 F         144.1223  142.3045  169.5337 F       1  UNL1       -0.1658
     17 F         141.2937  142.8715  168.7105 F       1  UNL1       -0.1658
     18 C         141.9305  144.3367  161.8247 C.3     1  UNL1        0.0730
     19 C         141.7263  144.2203  160.3432 C.3     1  UNL1        0.0294
     20 C         141.5092  142.8735  159.7196 C.3     1  UNL1        0.0666
     21 S         140.3290  142.0408  160.1245 S.3     1  UNL1       -0.0756
     22 C         139.9907  139.8573  163.3155 C.ar    1  UNL1        0.2029
     23 N         141.2715  139.3311  162.7387 N.ar    1  UNL1       -0.1250
     24 N         141.5541  140.0850  161.4732 N.ar    1  UNL1       -0.1220
     25 C         140.4480  141.0772  161.2678 C.ar    1  UNL1        0.1933
     26 N         139.4818  140.9363  162.4065 N.ar    1  UNL1       -0.2860
     27 C         138.2269  141.7346  162.6017 C.3     1  UNL1        0.1341
     28 C         139.6876  141.5749  166.0738 C.3     1  UNL1        0.0556
     29 C         139.1948  140.1763  165.8473 C.ar    1  UNL1        0.1001
     30 N         138.4762  139.3217  166.8489 N.ar    1  UNL1       -0.2085
     31 C         138.1714  138.0041  166.2002 C.ar    1  UNL1        0.2849
     32 O         138.7016  138.0443  164.7977 O.2     1  UNL1       -0.4283
     33 C         139.3341  139.3869  164.5796 C.ar    1  UNL1        0.1964
@<TRIPOS>BOND
     1    28    29    1
     2    29    30   ar
     3    30    31   ar
     4    31    32   ar
     5    32    33   ar
     6    33    22    1
     7    22    23   ar
     8    23    24   ar
     9    24    25   ar
    10    25    21    1
    11    21    20    1
    12    20    19    1
    13    19    18    1
    14    18     1    1
    15     1     2    1
    16     2     3    1
    17     3     4    1
    18     4     5    1
    19     5     7    1
    20     7     8   ar
    21     8     9   ar
    22     9    10   ar
    23    10    11    1
    24    10    12   ar
    25    12    14    1
    26    14    15    1
    27    14    16    1
    28    14    17    1
    29    12    13   ar
    30     5     6    1
    31    25    26   ar
    32    26    27    1
    33    33    29   ar
    34    26    22   ar
    35     6     1    1
    36     5     3    1
    37    13     7   ar
