@<TRIPOS>MOLECULE
*****
 40 45 0 0 0
SMALL
GASTEIGER

@<TRIPOS>ATOM
      1 C         142.8079  137.3208  156.6451 C.ar    1  UNL1        0.1095
      2 C         141.5057  137.6944  157.2891 C.ar    1  UNL1        0.0078
      3 C         141.1651  139.1384  157.5094 C.ar    1  UNL1        0.0104
      4 C         142.1266  140.2090  157.0856 C.ar    1  UNL1        0.0642
      5 C         141.7859  141.6531  157.3059 C.ar    1  UNL1        0.0174
      6 C         142.7474  142.7235  156.8821 C.ar    1  UNL1        0.0030
      7 C         144.0495  142.3499  156.2381 C.ar    1  UNL1        0.0191
      8 C         144.3902  140.9059  156.0178 C.ar    1  UNL1        0.0829
      9 N         143.4287  139.8354  156.4416 N.ar    1  UNL1       -0.2733
     10 C         143.7694  138.3912  156.2213 C.ar    1  UNL1        0.2691
     11 O         145.0716  138.0176  155.5773 O.2     1  UNL1       -0.2665
     12 O         143.4437  135.3782  155.0412 O.2     1  UNL1       -0.2700
     13 C         143.1486  135.8766  156.4248 C.2     1  UNL1        0.2505
     14 N         143.1941  134.9309  157.5882 N.am    1  UNL1       -0.3000
     15 H         143.0005  135.2580  158.4964 H       1  UNL1        0.1498
     16 C         143.5348  133.4868  157.3680 C.3     1  UNL1        0.0986
     17 C         144.7784  132.9085  157.9755 C.3     1  UNL1        0.0220
     18 C         145.1190  131.4644  157.7552 C.3     1  UNL1        0.0019
     19 C         144.2160  130.5986  156.9276 C.3     1  UNL1        0.0026
     20 C         142.9724  131.1769  156.3201 C.3     1  UNL1        0.0309
     21 C         142.6318  132.6211  156.5404 C.3     1  UNL1        0.1283
     22 O         141.3882  133.1994  155.9329 O.3     1  UNL1       -0.3828
     23 H         140.9222  132.5109  155.4331 H       1  UNL1        0.2104
     24 C         139.8629  139.5120  158.1534 C.3     1  UNL1        0.1007
     25 N         139.7593  139.5857  159.6480 N.3     1  UNL1       -0.2659
     26 C         140.0991  140.8608  160.3614 C.3     1  UNL1        0.0941
     27 C         139.9955  140.9345  161.8560 C.3     1  UNL1        0.1095
     28 N         139.5521  139.7332  162.6372 N.pl3   1  UNL1       -0.2904
     29 C         139.2123  138.4582  161.9238 C.3     1  UNL1        0.1095
     30 C         139.3159  138.3844  160.4292 C.3     1  UNL1        0.0941
     31 C         139.4485  139.8069  164.1318 C.ar    1  UNL1        0.1318
     32 C         140.0952  140.9389  164.8735 C.ar    1  UNL1        0.0343
     33 C         139.9916  141.0126  166.3682 C.ar    1  UNL1        0.0043
     34 C         140.6383  142.1446  167.1099 C.ar    1  UNL1        0.0001
     35 C         140.5347  142.2183  168.6045 C.ar    1  UNL1        0.0000
     36 C         139.7844  141.1600  169.3573 C.ar    1  UNL1        0.0000
     37 C         139.1376  140.0279  168.6156 C.ar    1  UNL1        0.0015
     38 C         139.2412  139.9542  167.1210 C.ar    1  UNL1        0.0193
     39 C         138.5945  138.8222  166.3792 C.ar    1  UNL1        0.1003
     40 N         138.6981  138.7485  164.8847 N.ar    1  UNL1       -0.2292
@<TRIPOS>BOND
     1    12    13    2
     2    13    14   am
     3    16    14    1
     4    16    17    1
     5    17    18    1
     6    18    19    1
     7    19    20    1
     8    20    21    1
     9    21    22    1
    10    13     1    1
    11     1     2   ar
    12     2     3   ar
    13     3    24    1
    14    24    25    1
    15    25    26    1
    16    26    27    1
    17    27    28    1
    18    28    31    1
    19    31    32   ar
    20    32    33   ar
    21    33    34   ar
    22    34    35   ar
    23    35    36   ar
    24    36    37   ar
    25    37    38   ar
    26    38    39   ar
    27    39    40   ar
    28    28    29    1
    29    29    30    1
    30     3     4   ar
    31     4     5   ar
    32     5     6   ar
    33     6     7   ar
    34     7     8   ar
    35     8     9   ar
    36     9    10   ar
    37    10    11    2
    38    21    16    1
    39    10     1   ar
    40    30    25    1
    41     9     4   ar
    42    40    31   ar
    43    38    33   ar
    44    14    15    1
    45    22    23    1
@<TRIPOS>MOLECULE
*****
 40 45 0 0 0
SMALL
GASTEIGER

@<TRIPOS>ATOM
      1 C         144.3778  141.8738  158.4582 C.ar    1  UNL1        0.1095
      2 C         143.4423  141.0359  157.6381 C.ar    1  UNL1        0.0078
      3 C         143.7836  140.7044  156.2156 C.ar    1  UNL1        0.0104
      4 C         145.0606  141.2109  155.6131 C.ar    1  UNL1        0.0642
      5 C         145.4019  140.8794  154.1906 C.ar    1  UNL1        0.0174
      6 C         146.6788  141.3859  153.5882 C.ar    1  UNL1        0.0030
      7 C         147.6144  142.2239  154.4083 C.ar    1  UNL1        0.0191
      8 C         147.2730  142.5554  155.8308 C.ar    1  UNL1        0.0829
      9 N         145.9961  142.0489  156.4332 N.ar    1  UNL1       -0.2733
     10 C         145.6547  142.3803  157.8558 C.ar    1  UNL1        0.2691
     11 O         146.5903  143.2183  158.6759 O.2     1  UNL1       -0.2665
     12 O         142.6213  142.0784  160.3616 O.2     1  UNL1       -0.2700
     13 C         144.0364  142.2053  159.8808 C.2     1  UNL1        0.2505
     14 N         145.1102  142.6637  160.8225 N.am    1  UNL1       -0.3000
     15 H         146.0391  142.7470  160.5069 H       1  UNL1        0.1498
     16 C         144.7689  142.9951  162.2450 C.3     1  UNL1        0.0986
     17 C         144.2023  144.3414  162.5862 C.3     1  UNL1        0.0220
     18 C         143.8610  144.6729  164.0087 C.3     1  UNL1        0.0019
     19 C         144.0862  143.6580  165.0901 C.3     1  UNL1        0.0026
     20 C         144.6528  142.3117  164.7489 C.3     1  UNL1        0.0309
     21 C         144.9942  141.9803  163.3263 C.3     1  UNL1        0.1283
     22 O         145.5607  140.6340  162.9851 O.3     1  UNL1       -0.3828
     23 H         145.6420  140.1032  163.7930 H       1  UNL1        0.2104
     24 C         142.8481  139.8664  155.3955 C.3     1  UNL1        0.1007
     25 N         142.8407  138.3751  155.5560 N.3     1  UNL1       -0.2659
     26 C         141.5666  137.6646  155.9055 C.3     1  UNL1        0.0941
     27 C         141.5593  136.1733  156.0660 C.3     1  UNL1        0.1095
     28 N         142.8259  135.3923  155.8769 N.pl3   1  UNL1       -0.2904
     29 C         144.0999  136.1027  155.5274 C.3     1  UNL1        0.1095
     30 C         144.1073  137.5941  155.3669 C.3     1  UNL1        0.0941
     31 C         142.8185  133.9010  156.0374 C.ar    1  UNL1        0.1318
     32 C         143.8197  133.2384  156.9366 C.ar    1  UNL1        0.0343
     33 C         143.8123  131.7470  157.0971 C.ar    1  UNL1        0.0043
     34 C         144.8135  131.0845  157.9963 C.ar    1  UNL1        0.0001
     35 C         144.8062  129.5931  158.1568 C.ar    1  UNL1        0.0000
     36 C         143.7976  128.7643  157.4180 C.ar    1  UNL1        0.0000
     37 C         142.7964  129.4269  156.5187 C.ar    1  UNL1        0.0015
     38 C         142.8038  130.9182  156.3583 C.ar    1  UNL1        0.0193
     39 C         141.8026  131.5808  155.4590 C.ar    1  UNL1        0.1003
     40 N         141.8100  133.0721  155.2986 N.ar    1  UNL1       -0.2292
@<TRIPOS>BOND
     1    12    13    2
     2    13    14   am
     3    16    14    1
     4    16    17    1
     5    17    18    1
     6    18    19    1
     7    19    20    1
     8    20    21    1
     9    21    22    1
    10    13     1    1
    11     1     2   ar
    12     2     3   ar
    13     3    24    1
    14    24    25    1
    15    25    26    1
    16    26    27    1
    17    27    28    1
    18    28    31    1
    19    31    32   ar
    20    32    33   ar
    21    33    34   ar
    22    34    35   ar
    23    35    36   ar
    24    36    37   ar
    25    37    38   ar
    26    38    39   ar
    27    39    40   ar
    28    28    29    1
    29    29    30    1
    30     3     4   ar
    31     4     5   ar
    32     5     6   ar
    33     6     7   ar
    34     7     8   ar
    35     8     9   ar
    36     9    10   ar
    37    10    11    2
    38    21    16    1
    39    10     1   ar
    40    30    25    1
    41     9     4   ar
    42    40    31   ar
    43    38    33   ar
    44    14    15    1
    45    22    23    1
@<TRIPOS>MOLECULE
*****
 40 45 0 0 0
SMALL
GASTEIGER

@<TRIPOS>ATOM
      1 C         140.8858  144.8042  160.1286 C.ar    1  UNL1        0.1095
      2 C         141.6539  143.5224  160.2587 C.ar    1  UNL1        0.0078
      3 C         141.6147  142.7518  161.5450 C.ar    1  UNL1        0.0104
      4 C         140.8073  143.2630  162.7013 C.ar    1  UNL1        0.0642
      5 C         140.7681  142.4925  163.9876 C.ar    1  UNL1        0.0174
      6 C         139.9607  143.0037  165.1437 C.ar    1  UNL1        0.0030
      7 C         139.1925  144.2854  165.0136 C.ar    1  UNL1        0.0191
      8 C         139.2317  145.0560  163.7273 C.ar    1  UNL1        0.0829
      9 N         140.0391  144.5448  162.5711 N.ar    1  UNL1       -0.2733
     10 C         140.0784  145.3154  161.2847 C.ar    1  UNL1        0.2691
     11 O         139.3102  146.5972  161.1546 O.2     1  UNL1       -0.2665
     12 O         142.2315  146.0920  158.3173 O.2     1  UNL1       -0.2700
     13 C         140.9250  145.5748  158.8422 C.2     1  UNL1        0.2505
     14 N         139.6577  145.8281  158.0807 N.am    1  UNL1       -0.3000
     15 H         138.8002  145.4887  158.4252 H       1  UNL1        0.1498
     16 C         139.6969  146.5987  156.7944 C.3     1  UNL1        0.0986
     17 C         138.9738  147.9081  156.6821 C.3     1  UNL1        0.0220
     18 C         139.0130  148.6786  155.3958 C.3     1  UNL1        0.0019
     19 C         139.7754  148.1398  154.2217 C.3     1  UNL1        0.0026
     20 C         140.4985  146.8304  154.3339 C.3     1  UNL1        0.0309
     21 C         140.4593  146.0599  155.6203 C.3     1  UNL1        0.1283
     22 O         141.1824  144.7505  155.7326 O.3     1  UNL1       -0.3828
     23 H         141.6204  144.5498  154.8907 H       1  UNL1        0.2104
     24 C         142.3829  141.4701  161.6751 C.3     1  UNL1        0.1007
     25 N         142.2544  140.4086  160.6232 N.3     1  UNL1       -0.2659
     26 C         140.9502  139.6914  160.4367 C.3     1  UNL1        0.0941
     27 C         140.8218  138.6299  159.3847 C.3     1  UNL1        0.1095
     28 N         141.9974  138.2856  158.5191 N.pl3   1  UNL1       -0.2904
     29 C         143.3016  139.0027  158.7056 C.3     1  UNL1        0.1095
     30 C         143.4301  140.0643  159.7576 C.3     1  UNL1        0.0941
     31 C         141.8690  137.2241  157.4672 C.ar    1  UNL1        0.1318
     32 C         142.8688  136.1078  157.4020 C.ar    1  UNL1        0.0343
     33 C         142.7403  135.0463  156.3499 C.ar    1  UNL1        0.0043
     34 C         143.7402  133.9301  156.2847 C.ar    1  UNL1        0.0001
     35 C         143.6117  132.8686  155.2328 C.ar    1  UNL1        0.0000
     36 C         142.4834  132.9234  154.2459 C.ar    1  UNL1        0.0000
     37 C         141.4836  134.0396  154.3111 C.ar    1  UNL1        0.0015
     38 C         141.6120  135.1011  155.3631 C.ar    1  UNL1        0.0193
     39 C         140.6122  136.2174  155.4283 C.ar    1  UNL1        0.1003
     40 N         140.7406  137.2788  156.4803 N.ar    1  UNL1       -0.2292
@<TRIPOS>BOND
     1    12    13    2
     2    13    14   am
     3    16    14    1
     4    16    17    1
     5    17    18    1
     6    18    19    1
     7    19    20    1
     8    20    21    1
     9    21    22    1
    10    13     1    1
    11     1     2   ar
    12     2     3   ar
    13     3    24    1
    14    24    25    1
    15    25    26    1
    16    26    27    1
    17    27    28    1
    18    28    31    1
    19    31    32   ar
    20    32    33   ar
    21    33    34   ar
    22    34    35   ar
    23    35    36   ar
    24    36    37   ar
    25    37    38   ar
    26    38    39   ar
    27    39    40   ar
    28    28    29    1
    29    29    30    1
    30     3     4   ar
    31     4     5   ar
    32     5     6   ar
    33     6     7   ar
    34     7     8   ar
    35     8     9   ar
    36     9    10   ar
    37    10    11    2
    38    21    16    1
    39    10     1   ar
    40    30    25    1
    41     9     4   ar
    42    40    31   ar
    43    38    33   ar
    44    14    15    1
    45    22    23    1
@<TRIPOS>MOLECULE
*****
 40 45 0 0 0
SMALL
GASTEIGER

@<TRIPOS>ATOM
      1 C         139.2316  141.6540  160.0500 C.ar    1  UNL1        0.1095
      2 C         139.3461  140.8633  158.7805 C.ar    1  UNL1        0.0078
      3 C         139.8010  141.5335  157.5180 C.ar    1  UNL1        0.0104
      4 C         140.1414  142.9944  157.5249 C.ar    1  UNL1        0.0642
      5 C         140.5963  143.6645  156.2624 C.ar    1  UNL1        0.0174
      6 C         140.9367  145.1253  156.2695 C.ar    1  UNL1        0.0030
      7 C         140.8222  145.9160  157.5390 C.ar    1  UNL1        0.0191
      8 C         140.3673  145.2458  158.8015 C.ar    1  UNL1        0.0829
      9 N         140.0269  143.7850  158.7945 N.ar    1  UNL1       -0.2733
     10 C         139.5720  143.1148  160.0570 C.ar    1  UNL1        0.2691
     11 O         139.4576  143.9055  161.3266 O.2     1  UNL1       -0.2665
     12 O         137.3238  140.9931  161.6851 O.2     1  UNL1       -0.2700
     13 C         138.7767  140.9838  161.3125 C.2     1  UNL1        0.2505
     14 N         139.7749  140.3042  162.2025 N.am    1  UNL1       -0.3000
     15 H         140.7285  140.2981  161.9579 H       1  UNL1        0.1498
     16 C         139.3200  139.6340  163.4650 C.3     1  UNL1        0.0986
     17 C         138.9283  140.4606  164.6538 C.3     1  UNL1        0.0220
     18 C         138.4735  139.7904  165.9162 C.3     1  UNL1        0.0019
     19 C         138.4104  138.2935  165.9900 C.3     1  UNL1        0.0026
     20 C         138.8021  137.4669  164.8012 C.3     1  UNL1        0.0309
     21 C         139.2569  138.1372  163.5386 C.3     1  UNL1        0.1283
     22 O         139.6487  137.3106  162.3499 O.3     1  UNL1       -0.3828
     23 H         139.5508  136.3696  162.5640 H       1  UNL1        0.2104
     24 C         139.9154  140.7428  156.2484 C.3     1  UNL1        0.1007
     25 N         140.5830  139.3996  156.2590 N.3     1  UNL1       -0.2659
     26 C         142.0548  139.2956  156.5292 C.3     1  UNL1        0.0941
     27 C         142.7223  137.9524  156.5398 C.3     1  UNL1        0.1095
     28 N         141.9181  136.7131  156.2802 N.pl3   1  UNL1       -0.2904
     29 C         140.4464  136.8171  156.0099 C.3     1  UNL1        0.1095
     30 C         139.7787  138.1603  155.9994 C.3     1  UNL1        0.0941
     31 C         142.5857  135.3699  156.2907 C.ar    1  UNL1        0.1318
     32 C         142.4656  134.4634  155.1018 C.ar    1  UNL1        0.0343
     33 C         143.1332  133.1201  155.1124 C.ar    1  UNL1        0.0043
     34 C         143.0131  132.2135  153.9234 C.ar    1  UNL1        0.0001
     35 C         143.6807  130.8703  153.9340 C.ar    1  UNL1        0.0000
     36 C         144.4683  130.4337  155.1336 C.ar    1  UNL1        0.0000
     37 C         144.5883  131.3403  156.3225 C.ar    1  UNL1        0.0015
     38 C         143.9208  132.6835  156.3120 C.ar    1  UNL1        0.0193
     39 C         144.0408  133.5901  157.5009 C.ar    1  UNL1        0.1003
     40 N         143.3733  134.9333  157.4904 N.ar    1  UNL1       -0.2292
@<TRIPOS>BOND
     1    12    13    2
     2    13    14   am
     3    16    14    1
     4    16    17    1
     5    17    18    1
     6    18    19    1
     7    19    20    1
     8    20    21    1
     9    21    22    1
    10    13     1    1
    11     1     2   ar
    12     2     3   ar
    13     3    24    1
    14    24    25    1
    15    25    26    1
    16    26    27    1
    17    27    28    1
    18    28    31    1
    19    31    32   ar
    20    32    33   ar
    21    33    34   ar
    22    34    35   ar
    23    35    36   ar
    24    36    37   ar
    25    37    38   ar
    26    38    39   ar
    27    39    40   ar
    28    28    29    1
    29    29    30    1
    30     3     4   ar
    31     4     5   ar
    32     5     6   ar
    33     6     7   ar
    34     7     8   ar
    35     8     9   ar
    36     9    10   ar
    37    10    11    2
    38    21    16    1
    39    10     1   ar
    40    30    25    1
    41     9     4   ar
    42    40    31   ar
    43    38    33   ar
    44    14    15    1
    45    22    23    1
@<TRIPOS>MOLECULE
*****
 40 45 0 0 0
SMALL
GASTEIGER

@<TRIPOS>ATOM
      1 C         141.9252  137.4523  156.6712 C.ar    1  UNL1        0.1095
      2 C         142.4341  138.4856  157.6321 C.ar    1  UNL1        0.0078
      3 C         141.6298  139.7235  157.8975 C.ar    1  UNL1        0.0104
      4 C         140.3166  139.9282  157.2021 C.ar    1  UNL1        0.0642
      5 C         139.5123  141.1662  157.4675 C.ar    1  UNL1        0.0174
      6 C         138.1991  141.3709  156.7721 C.ar    1  UNL1        0.0030
      7 C         137.6903  140.3376  155.8112 C.ar    1  UNL1        0.0191
      8 C         138.4946  139.0996  155.5457 C.ar    1  UNL1        0.0829
      9 N         139.8077  138.8950  156.2412 N.ar    1  UNL1       -0.2733
     10 C         140.6121  137.6569  155.9757 C.ar    1  UNL1        0.2691
     11 O         140.1032  136.6237  155.0148 O.2     1  UNL1       -0.2665
     12 O         144.1990  136.3206  156.1242 O.2     1  UNL1       -0.2700
     13 C         142.7296  136.2142  156.4057 C.2     1  UNL1        0.2505
     14 N         142.0644  134.8699  156.4218 N.am    1  UNL1       -0.3000
     15 H         141.0999  134.8001  156.6066 H       1  UNL1        0.1498
     16 C         142.8687  133.6319  156.1564 C.3     1  UNL1        0.0986
     17 C         142.7845  132.9549  154.8205 C.3     1  UNL1        0.0220
     18 C         143.5888  131.7170  154.5550 C.3     1  UNL1        0.0019
     19 C         144.4773  131.1559  155.6255 C.3     1  UNL1        0.0026
     20 C         144.5614  131.8329  156.9614 C.3     1  UNL1        0.0309
     21 C         143.7571  133.0709  157.2268 C.3     1  UNL1        0.1283
     22 O         143.8413  133.7479  158.5627 O.3     1  UNL1       -0.3828
     23 H         144.4553  133.2606  159.1340 H       1  UNL1        0.2104
     24 C         142.1387  140.7568  158.8585 C.3     1  UNL1        0.1007
     25 N         141.7418  140.6970  160.3037 N.3     1  UNL1       -0.2659
     26 C         142.1057  139.5008  161.1326 C.3     1  UNL1        0.0941
     27 C         141.7088  139.4410  162.5778 C.3     1  UNL1        0.1095
     28 N         140.9480  140.5773  163.1944 N.pl3   1  UNL1       -0.2904
     29 C         140.5840  141.7734  162.3656 C.3     1  UNL1        0.1095
     30 C         140.9809  141.8332  160.9202 C.3     1  UNL1        0.0941
     31 C         140.5511  140.5174  164.6396 C.ar    1  UNL1        0.1318
     32 C         140.8515  141.6724  165.5483 C.ar    1  UNL1        0.0343
     33 C         140.4546  141.6125  166.9937 C.ar    1  UNL1        0.0043
     34 C         140.7550  142.7675  167.9024 C.ar    1  UNL1        0.0001
     35 C         140.3581  142.7077  169.3477 C.ar    1  UNL1        0.0000
     36 C         139.6608  141.4929  169.8842 C.ar    1  UNL1        0.0000
     37 C         139.3603  140.3379  168.9755 C.ar    1  UNL1        0.0015
     38 C         139.7572  140.3977  167.5302 C.ar    1  UNL1        0.0193
     39 C         139.4568  139.2428  166.6215 C.ar    1  UNL1        0.1003
     40 N         139.8537  139.3026  165.1762 N.ar    1  UNL1       -0.2292
@<TRIPOS>BOND
     1    12    13    2
     2    13    14   am
     3    16    14    1
     4    16    17    1
     5    17    18    1
     6    18    19    1
     7    19    20    1
     8    20    21    1
     9    21    22    1
    10    13     1    1
    11     1     2   ar
    12     2     3   ar
    13     3    24    1
    14    24    25    1
    15    25    26    1
    16    26    27    1
    17    27    28    1
    18    28    31    1
    19    31    32   ar
    20    32    33   ar
    21    33    34   ar
    22    34    35   ar
    23    35    36   ar
    24    36    37   ar
    25    37    38   ar
    26    38    39   ar
    27    39    40   ar
    28    28    29    1
    29    29    30    1
    30     3     4   ar
    31     4     5   ar
    32     5     6   ar
    33     6     7   ar
    34     7     8   ar
    35     8     9   ar
    36     9    10   ar
    37    10    11    2
    38    21    16    1
    39    10     1   ar
    40    30    25    1
    41     9     4   ar
    42    40    31   ar
    43    38    33   ar
    44    14    15    1
    45    22    23    1
@<TRIPOS>MOLECULE
*****
 40 45 0 0 0
SMALL
GASTEIGER

@<TRIPOS>ATOM
      1 C         141.8566  141.9603  164.1853 C.ar    1  UNL1        0.1095
      2 C         142.8737  141.3668  163.2562 C.ar    1  UNL1        0.0078
      3 C         143.0257  141.9085  161.8658 C.ar    1  UNL1        0.0104
      4 C         142.1606  143.0437  161.4044 C.ar    1  UNL1        0.0642
      5 C         142.3126  143.5854  160.0139 C.ar    1  UNL1        0.0174
      6 C         141.4475  144.7206  159.5526 C.ar    1  UNL1        0.0030
      7 C         140.4303  145.3141  160.4817 C.ar    1  UNL1        0.0191
      8 C         140.2783  144.7724  161.8721 C.ar    1  UNL1        0.0829
      9 N         141.1434  143.6372  162.3335 N.ar    1  UNL1       -0.2733
     10 C         140.9915  143.0955  163.7240 C.ar    1  UNL1        0.2691
     11 O         139.9743  143.6889  164.6531 O.2     1  UNL1       -0.2665
     12 O         141.9127  139.9564  165.8380 O.2     1  UNL1       -0.2700
     13 C         141.7046  141.4185  165.5759 C.2     1  UNL1        0.2505
     14 N         141.3445  142.3390  166.7042 N.am    1  UNL1       -0.3000
     15 H         141.2080  143.2987  166.5321 H       1  UNL1        0.1498
     16 C         141.1925  141.7973  168.0946 C.3     1  UNL1        0.0986
     17 C         139.9234  141.1056  168.4955 C.3     1  UNL1        0.0220
     18 C         139.7714  140.5639  169.8860 C.3     1  UNL1        0.0019
     19 C         140.8886  140.7139  170.8757 C.3     1  UNL1        0.0026
     20 C         142.1578  141.4056  170.4748 C.3     1  UNL1        0.0309
     21 C         142.3098  141.9473  169.0842 C.3     1  UNL1        0.1283
     22 O         143.5789  142.6390  168.6833 O.3     1  UNL1       -0.3828
     23 H         144.1923  142.6502  169.4347 H       1  UNL1        0.2104
     24 C         144.0429  141.3150  160.9367 C.3     1  UNL1        0.1007
     25 N         143.6466  140.2198  159.9916 N.3     1  UNL1       -0.2659
     26 C         143.3251  138.8531  160.5198 C.3     1  UNL1        0.0941
     27 C         142.9288  137.7579  159.5747 C.3     1  UNL1        0.1095
     28 N         142.8539  138.0292  158.1013 N.pl3   1  UNL1       -0.2904
     29 C         143.1753  139.3958  157.5731 C.3     1  UNL1        0.1095
     30 C         143.5717  140.4911  158.5182 C.3     1  UNL1        0.0941
     31 C         142.4576  136.9340  157.1562 C.ar    1  UNL1        0.1318
     32 C         143.3162  135.7113  157.0227 C.ar    1  UNL1        0.0343
     33 C         142.9198  134.6160  156.0775 C.ar    1  UNL1        0.0043
     34 C         143.7784  133.3933  155.9441 C.ar    1  UNL1        0.0001
     35 C         143.3821  132.2980  154.9989 C.ar    1  UNL1        0.0000
     36 C         142.1272  132.4255  154.1873 C.ar    1  UNL1        0.0000
     37 C         141.2686  133.6482  154.3207 C.ar    1  UNL1        0.0015
     38 C         141.6649  134.7434  155.2658 C.ar    1  UNL1        0.0193
     39 C         140.8063  135.9661  155.3993 C.ar    1  UNL1        0.1003
     40 N         141.2026  137.0614  156.3444 N.ar    1  UNL1       -0.2292
@<TRIPOS>BOND
     1    12    13    2
     2    13    14   am
     3    16    14    1
     4    16    17    1
     5    17    18    1
     6    18    19    1
     7    19    20    1
     8    20    21    1
     9    21    22    1
    10    13     1    1
    11     1     2   ar
    12     2     3   ar
    13     3    24    1
    14    24    25    1
    15    25    26    1
    16    26    27    1
    17    27    28    1
    18    28    31    1
    19    31    32   ar
    20    32    33   ar
    21    33    34   ar
    22    34    35   ar
    23    35    36   ar
    24    36    37   ar
    25    37    38   ar
    26    38    39   ar
    27    39    40   ar
    28    28    29    1
    29    29    30    1
    30     3     4   ar
    31     4     5   ar
    32     5     6   ar
    33     6     7   ar
    34     7     8   ar
    35     8     9   ar
    36     9    10   ar
    37    10    11    2
    38    21    16    1
    39    10     1   ar
    40    30    25    1
    41     9     4   ar
    42    40    31   ar
    43    38    33   ar
    44    14    15    1
    45    22    23    1
@<TRIPOS>MOLECULE
*****
 40 45 0 0 0
SMALL
GASTEIGER

@<TRIPOS>ATOM
      1 C         143.0103  142.6039  162.8183 C.ar    1  UNL1        0.1095
      2 C         143.7852  142.0030  161.6832 C.ar    1  UNL1        0.0078
      3 C         143.5198  142.4478  160.2755 C.ar    1  UNL1        0.0104
      4 C         142.4794  143.4935  160.0028 C.ar    1  UNL1        0.0642
      5 C         142.2140  143.9383  158.5951 C.ar    1  UNL1        0.0174
      6 C         141.1738  144.9840  158.3225 C.ar    1  UNL1        0.0030
      7 C         140.3989  145.5849  159.4576 C.ar    1  UNL1        0.0191
      8 C         140.6643  145.1401  160.8653 C.ar    1  UNL1        0.0829
      9 N         141.7046  144.0944  161.1379 N.ar    1  UNL1       -0.2733
     10 C         141.9700  143.6496  162.5457 C.ar    1  UNL1        0.2691
     11 O         141.1952  144.2505  163.6808 O.2     1  UNL1       -0.2665
     12 O         144.6870  142.0009  164.7091 O.2     1  UNL1       -0.2700
     13 C         143.2758  142.1591  164.2261 C.2     1  UNL1        0.2505
     14 N         142.1299  141.8725  165.1507 N.am    1  UNL1       -0.3000
     15 H         141.2037  141.9763  164.8336 H       1  UNL1        0.1498
     16 C         142.3953  141.4276  166.5584 C.3     1  UNL1        0.0986
     17 C         142.8088  142.4289  167.5960 C.3     1  UNL1        0.0220
     18 C         143.0741  141.9841  169.0037 C.3     1  UNL1        0.0019
     19 C         142.9261  140.5380  169.3739 C.3     1  UNL1        0.0026
     20 C         142.5127  139.5367  168.3362 C.3     1  UNL1        0.0309
     21 C         142.2473  139.9816  166.9285 C.3     1  UNL1        0.1283
     22 O         141.8339  138.9804  165.8909 O.3     1  UNL1       -0.3828
     23 H         141.7860  138.0990  166.2930 H       1  UNL1        0.2104
     24 C         144.2946  141.8469  159.1403 C.3     1  UNL1        0.1007
     25 N         143.8493  140.5504  158.5316 N.3     1  UNL1       -0.2659
     26 C         143.2934  139.4640  159.4040 C.3     1  UNL1        0.0941
     27 C         142.8481  138.1675  158.7952 C.3     1  UNL1        0.1095
     28 N         142.9587  137.9572  157.3142 N.pl3   1  UNL1       -0.2904
     29 C         143.5145  139.0434  156.4418 C.3     1  UNL1        0.1095
     30 C         143.9599  140.3401  157.0506 C.3     1  UNL1        0.0941
     31 C         142.5133  136.6606  156.7055 C.ar    1  UNL1        0.1318
     32 C         143.1252  135.3690  157.1608 C.ar    1  UNL1        0.0343
     33 C         142.6798  134.0724  156.5520 C.ar    1  UNL1        0.0043
     34 C         143.2917  132.7808  157.0073 C.ar    1  UNL1        0.0001
     35 C         142.8464  131.4842  156.3986 C.ar    1  UNL1        0.0000
     36 C         141.7892  131.4793  155.3345 C.ar    1  UNL1        0.0000
     37 C         141.1773  132.7709  154.8792 C.ar    1  UNL1        0.0015
     38 C         141.6226  134.0675  155.4879 C.ar    1  UNL1        0.0193
     39 C         141.0108  135.3591  155.0326 C.ar    1  UNL1        0.1003
     40 N         141.4561  136.6556  155.6413 N.ar    1  UNL1       -0.2292
@<TRIPOS>BOND
     1    12    13    2
     2    13    14   am
     3    16    14    1
     4    16    17    1
     5    17    18    1
     6    18    19    1
     7    19    20    1
     8    20    21    1
     9    21    22    1
    10    13     1    1
    11     1     2   ar
    12     2     3   ar
    13     3    24    1
    14    24    25    1
    15    25    26    1
    16    26    27    1
    17    27    28    1
    18    28    31    1
    19    31    32   ar
    20    32    33   ar
    21    33    34   ar
    22    34    35   ar
    23    35    36   ar
    24    36    37   ar
    25    37    38   ar
    26    38    39   ar
    27    39    40   ar
    28    28    29    1
    29    29    30    1
    30     3     4   ar
    31     4     5   ar
    32     5     6   ar
    33     6     7   ar
    34     7     8   ar
    35     8     9   ar
    36     9    10   ar
    37    10    11    2
    38    21    16    1
    39    10     1   ar
    40    30    25    1
    41     9     4   ar
    42    40    31   ar
    43    38    33   ar
    44    14    15    1
    45    22    23    1
@<TRIPOS>MOLECULE
*****
 40 45 0 0 0
SMALL
GASTEIGER

@<TRIPOS>ATOM
      1 C         141.9084  141.8008  159.6161 C.ar    1  UNL1        0.1095
      2 C         141.3214  140.9758  158.5094 C.ar    1  UNL1        0.0078
      3 C         142.1281  140.6910  157.2774 C.ar    1  UNL1        0.0104
      4 C         143.5219  141.2311  157.1520 C.ar    1  UNL1        0.0642
      5 C         144.3286  140.9462  155.9199 C.ar    1  UNL1        0.0174
      6 C         145.7223  141.4863  155.7945 C.ar    1  UNL1        0.0030
      7 C         146.3093  142.3113  156.9012 C.ar    1  UNL1        0.0191
      8 C         145.5026  142.5962  158.1333 C.ar    1  UNL1        0.0829
      9 N         144.1089  142.0561  158.2586 N.ar    1  UNL1       -0.2733
     10 C         143.3021  142.3410  159.4908 C.ar    1  UNL1        0.2691
     11 O         143.8891  143.1660  160.5975 O.2     1  UNL1       -0.2665
     12 O         140.7123  140.9647  161.7656 O.2     1  UNL1       -0.2700
     13 C         141.1016  142.0857  160.8482 C.2     1  UNL1        0.2505
     14 N         140.6841  143.4917  161.1629 N.am    1  UNL1       -0.3000
     15 H         140.9396  144.2275  160.5607 H       1  UNL1        0.1498
     16 C         139.8774  143.7766  162.3949 C.3     1  UNL1        0.0986
     17 C         140.5617  144.2226  163.6530 C.3     1  UNL1        0.0220
     18 C         139.7550  144.5075  164.8850 C.3     1  UNL1        0.0019
     19 C         138.2638  144.3464  164.8590 C.3     1  UNL1        0.0026
     20 C         137.5795  143.9004  163.6009 C.3     1  UNL1        0.0309
     21 C         138.3863  143.6155  162.3689 C.3     1  UNL1        0.1283
     22 O         137.7020  143.1694  161.1108 O.3     1  UNL1       -0.3828
     23 H         136.7456  143.1169  161.2641 H       1  UNL1        0.2104
     24 C         141.5410  139.8660  156.1707 C.3     1  UNL1        0.1007
     25 N         141.7116  138.3757  156.1746 N.3     1  UNL1       -0.2659
     26 C         140.8436  137.5191  155.3010 C.3     1  UNL1        0.0941
     27 C         141.0142  136.0289  155.3049 C.3     1  UNL1        0.1095
     28 N         142.0528  135.3952  156.1823 N.pl3   1  UNL1       -0.2904
     29 C         142.9207  136.2517  157.0558 C.3     1  UNL1        0.1095
     30 C         142.7502  137.7420  157.0519 C.3     1  UNL1        0.0941
     31 C         142.2234  133.9049  156.1862 C.ar    1  UNL1        0.1318
     32 C         141.3313  133.0457  155.3401 C.ar    1  UNL1        0.0343
     33 C         141.5020  131.5554  155.3440 C.ar    1  UNL1        0.0043
     34 C         140.6099  130.6962  154.4978 C.ar    1  UNL1        0.0001
     35 C         140.7805  129.2059  154.5017 C.ar    1  UNL1        0.0000
     36 C         141.8432  128.5749  155.3518 C.ar    1  UNL1        0.0000
     37 C         142.7352  129.4342  156.1979 C.ar    1  UNL1        0.0015
     38 C         142.5646  130.9244  156.1940 C.ar    1  UNL1        0.0193
     39 C         143.4567  131.7837  157.0401 C.ar    1  UNL1        0.1003
     40 N         143.2861  133.2739  157.0363 N.ar    1  UNL1       -0.2292
@<TRIPOS>BOND
     1    12    13    2
     2    13    14   am
     3    16    14    1
     4    16    17    1
     5    17    18    1
     6    18    19    1
     7    19    20    1
     8    20    21    1
     9    21    22    1
    10    13     1    1
    11     1     2   ar
    12     2     3   ar
    13     3    24    1
    14    24    25    1
    15    25    26    1
    16    26    27    1
    17    27    28    1
    18    28    31    1
    19    31    32   ar
    20    32    33   ar
    21    33    34   ar
    22    34    35   ar
    23    35    36   ar
    24    36    37   ar
    25    37    38   ar
    26    38    39   ar
    27    39    40   ar
    28    28    29    1
    29    29    30    1
    30     3     4   ar
    31     4     5   ar
    32     5     6   ar
    33     6     7   ar
    34     7     8   ar
    35     8     9   ar
    36     9    10   ar
    37    10    11    2
    38    21    16    1
    39    10     1   ar
    40    30    25    1
    41     9     4   ar
    42    40    31   ar
    43    38    33   ar
    44    14    15    1
    45    22    23    1
@<TRIPOS>MOLECULE
*****
 40 45 0 0 0
SMALL
GASTEIGER

@<TRIPOS>ATOM
      1 C         142.1787  137.9984  157.0638 C.ar    1  UNL1        0.1095
      2 C         141.1551  138.5918  157.9858 C.ar    1  UNL1        0.0078
      3 C         141.3882  139.9424  158.5954 C.ar    1  UNL1        0.0104
      4 C         142.6449  140.6995  158.2830 C.ar    1  UNL1        0.0642
      5 C         142.8779  142.0501  158.8926 C.ar    1  UNL1        0.0174
      6 C         144.1346  142.8072  158.5802 C.ar    1  UNL1        0.0030
      7 C         145.1581  142.2137  157.6582 C.ar    1  UNL1        0.0191
      8 C         144.9251  140.8632  157.0486 C.ar    1  UNL1        0.0829
      9 N         143.6684  140.1061  157.3610 N.ar    1  UNL1       -0.2733
     10 C         143.4353  138.7555  156.7514 C.ar    1  UNL1        0.2691
     11 O         144.4589  138.1620  155.8294 O.2     1  UNL1       -0.2665
     12 O         140.5867  136.2845  155.9332 O.2     1  UNL1       -0.2700
     13 C         141.9456  136.6477  156.4542 C.2     1  UNL1        0.2505
     14 N         143.0714  135.6605  156.3656 N.am    1  UNL1       -0.3000
     15 H         143.9633  135.8989  156.7075 H       1  UNL1        0.1498
     16 C         142.8383  134.3099  155.7560 C.3     1  UNL1        0.0986
     17 C         142.5862  134.1855  154.2826 C.3     1  UNL1        0.0220
     18 C         142.3532  132.8349  153.6730 C.3     1  UNL1        0.0019
     19 C         142.3722  131.6087  154.5369 C.3     1  UNL1        0.0026
     20 C         142.6244  131.7332  156.0103 C.3     1  UNL1        0.0309
     21 C         142.8574  133.0838  156.6199 C.3     1  UNL1        0.1283
     22 O         143.1095  133.2083  158.0933 O.3     1  UNL1       -0.3828
     23 H         143.0886  132.3281  158.5004 H       1  UNL1        0.2104
     24 C         140.3646  140.5358  159.5174 C.3     1  UNL1        0.1007
     25 N         140.6387  140.6167  160.9899 N.3     1  UNL1       -0.2659
     26 C         141.4441  139.5449  161.6628 C.3     1  UNL1        0.0941
     27 C         141.7182  139.6257  163.1353 C.3     1  UNL1        0.1095
     28 N         141.1871  140.7782  163.9350 N.pl3   1  UNL1       -0.2904
     29 C         140.3818  141.8500  163.2621 C.3     1  UNL1        0.1095
     30 C         140.1076  141.7692  161.7896 C.3     1  UNL1        0.0941
     31 C         141.4612  140.8591  165.4074 C.ar    1  UNL1        0.1318
     32 C         140.8212  141.9367  166.2315 C.ar    1  UNL1        0.0343
     33 C         141.0954  142.0175  167.7040 C.ar    1  UNL1        0.0043
     34 C         140.4554  143.0952  168.5281 C.ar    1  UNL1        0.0001
     35 C         140.7295  143.1760  170.0005 C.ar    1  UNL1        0.0000
     36 C         141.6437  142.1791  170.6490 C.ar    1  UNL1        0.0000
     37 C         142.2837  141.1015  169.8250 C.ar    1  UNL1        0.0015
     38 C         142.0095  141.0207  168.3525 C.ar    1  UNL1        0.0193
     39 C         142.6496  139.9430  167.5285 C.ar    1  UNL1        0.1003
     40 N         142.3754  139.8622  166.0560 N.ar    1  UNL1       -0.2292
@<TRIPOS>BOND
     1    12    13    2
     2    13    14   am
     3    16    14    1
     4    16    17    1
     5    17    18    1
     6    18    19    1
     7    19    20    1
     8    20    21    1
     9    21    22    1
    10    13     1    1
    11     1     2   ar
    12     2     3   ar
    13     3    24    1
    14    24    25    1
    15    25    26    1
    16    26    27    1
    17    27    28    1
    18    28    31    1
    19    31    32   ar
    20    32    33   ar
    21    33    34   ar
    22    34    35   ar
    23    35    36   ar
    24    36    37   ar
    25    37    38   ar
    26    38    39   ar
    27    39    40   ar
    28    28    29    1
    29    29    30    1
    30     3     4   ar
    31     4     5   ar
    32     5     6   ar
    33     6     7   ar
    34     7     8   ar
    35     8     9   ar
    36     9    10   ar
    37    10    11    2
    38    21    16    1
    39    10     1   ar
    40    30    25    1
    41     9     4   ar
    42    40    31   ar
    43    38    33   ar
    44    14    15    1
    45    22    23    1
