@<TRIPOS>MOLECULE
*****
 34 39 0 0 0
SMALL
GASTEIGER

@<TRIPOS>ATOM
      1 C         142.6192  137.9037  157.3343 C.ar    1  UNL1        0.1028
      2 C         142.8332  138.5148  155.9813 C.ar    1  UNL1        0.0131
      3 C         142.5325  139.9673  155.7583 C.ar    1  UNL1       -0.0015
      4 C         142.0063  141.0821  156.6795 C.ar    1  UNL1        0.0035
      5 C         142.1557  139.7495  157.3515 C.ar    1  UNL1        0.0358
      6 C         142.1044  138.7450  158.4644 C.ar    1  UNL1        0.1545
      7 O         141.8600  138.2219  159.8488 O.3     1  UNL1       -0.4528
      8 C         141.4598  138.2596  161.2940 C.ar    1  UNL1        0.1454
      9 C         141.3617  137.1857  162.6436 C.ar    1  UNL1        0.0375
     10 C         140.9220  137.4144  164.0593 C.ar    1  UNL1        0.0032
     11 C         140.4664  138.7763  164.4925 C.ar    1  UNL1        0.0014
     12 C         140.0269  139.0040  165.9085 C.ar    1  UNL1        0.0001
     13 C         139.5711  140.3656  166.3425 C.ar    1  UNL1        0.0013
     14 C         139.5548  141.4994  165.3607 C.ar    1  UNL1        0.0149
     15 C         139.9943  141.2717  163.9447 C.ar    1  UNL1        0.0539
     16 C         140.4501  139.9101  163.5107 C.ar    1  UNL1        0.0167
     17 C         140.9648  138.8524  162.5798 C.ar    1  UNL1        0.0387
     18 N         139.6668  142.7298  163.8160 N.am    1  UNL1       -0.2575
     19 C         139.1618  143.8983  164.6095 C.3     1  UNL1        0.1001
     20 C         139.1117  145.0897  163.6996 C.3     1  UNL1        0.0470
     21 C         139.5686  145.0669  162.0311 C.3     1  UNL1        0.1340
     22 N         139.8130  145.5901  160.6466 N.3     1  UNL1       -0.2863
     23 C         140.2132  145.5524  159.2015 C.3     1  UNL1        0.1151
     24 C         140.7083  144.9596  157.9156 C.ar    1  UNL1        0.0739
     25 C         140.5981  146.2416  157.1449 C.ar    1  UNL1        0.1147
     26 N         141.0446  145.9763  155.7377 N.ar    1  UNL1       -0.2226
     27 C         141.4308  144.5302  155.6387 C.ar    1  UNL1        0.1786
     28 N         141.2229  143.9018  156.9848 N.ar    1  UNL1       -0.3070
     29 C         141.6787  142.5402  156.5508 C.3     1  UNL1        0.1341
     30 C         139.5173  144.0625  163.1440 C.2     1  UNL1        0.2437
     31 O         139.2583  144.3432  163.8437 O.2     1  UNL1       -0.2731
     32 H         140.4380  146.3487  160.9192 H       1  UNL1        0.1240
     33 N         143.2206  134.9986  157.7804 N.1     1  UNL1       -0.1907
     34 C         142.9198  136.4511  157.5574 C.1     1  UNL1        0.1035
@<TRIPOS>BOND
     1    33    34    3
     2    34     1    1
     3     1     2   ar
     4     2     3   ar
     5     3     4   ar
     6     4     5   ar
     7     5     6   ar
     8     6     7    1
     9     7     8    1
    10     8     9   ar
    11     9    10   ar
    12    10    11   ar
    13    11    12   ar
    14    12    13   ar
    15    13    14   ar
    16    14    15   ar
    17    15    16   ar
    18    16    17   ar
    19    15    18    1
    20    18    19    1
    21    19    20    1
    22    21    20    1
    23    21    22    1
    24    22    23    1
    25    23    24    1
    26    24    25   ar
    27    25    26   ar
    28    26    27   ar
    29    27    28   ar
    30    28    29    1
    31    21    30    1
    32    30    31    2
    33     6     1   ar
    34    17     8   ar
    35    30    18   am
    36    29     4    1
    37    16    11   ar
    38    28    24   ar
    39    22    32    1
@<TRIPOS>MOLECULE
*****
 34 39 0 0 0
SMALL
GASTEIGER

@<TRIPOS>ATOM
      1 C         140.1876  144.7229  156.6698 C.ar    1  UNL1        0.1028
      2 C         140.5221  144.1193  155.3380 C.ar    1  UNL1        0.0131
      3 C         141.0311  142.7105  155.2595 C.ar    1  UNL1       -0.0015
      4 C         141.3174  141.6386  156.3261 C.ar    1  UNL1        0.0035
      5 C         140.8057  142.9352  156.8802 C.ar    1  UNL1        0.0358
      6 C         140.3621  143.9177  157.9233 C.ar    1  UNL1        0.1545
      7 O         140.0542  144.4363  159.2966 O.3     1  UNL1       -0.4528
      8 C         139.9288  144.4123  160.7912 C.ar    1  UNL1        0.1454
      9 C         139.4392  145.4640  162.0713 C.ar    1  UNL1        0.0375
     10 C         139.3807  145.2548  163.5554 C.ar    1  UNL1        0.0032
     11 C         139.7966  143.9394  164.1443 C.ar    1  UNL1        0.0014
     12 C         139.7377  143.7311  165.6286 C.ar    1  UNL1        0.0001
     13 C         140.1534  142.4160  166.2185 C.ar    1  UNL1        0.0013
     14 C         140.6279  141.3093  165.3241 C.ar    1  UNL1        0.0149
     15 C         140.6868  141.5176  163.8398 C.ar    1  UNL1        0.0539
     16 C         140.2711  142.8327  163.2499 C.ar    1  UNL1        0.0167
     17 C         140.0049  143.8491  162.1794 C.ar    1  UNL1        0.0387
     18 N         141.1887  140.1042  163.8591 N.am    1  UNL1       -0.2575
     19 C         141.5051  138.9793  164.7996 C.3     1  UNL1        0.1001
     20 C         141.9921  137.8175  163.9854 C.3     1  UNL1        0.0470
     21 C         142.1439  137.8252  162.2620 C.3     1  UNL1        0.1340
     22 N         142.4518  137.3065  160.8886 N.3     1  UNL1       -0.2863
     23 C         142.5773  137.3306  159.3940 C.3     1  UNL1        0.1151
     24 C         142.5011  137.8937  158.0058 C.ar    1  UNL1        0.0739
     25 C         143.0052  136.6452  157.3446 C.ar    1  UNL1        0.1147
     26 N         143.0506  136.8901  155.8654 N.ar    1  UNL1       -0.2226
     27 C         142.5745  138.2899  155.6124 C.ar    1  UNL1        0.1786
     28 N         142.2349  138.9102  156.9353 N.ar    1  UNL1       -0.3070
     29 C         141.8192  140.2252  156.3455 C.3     1  UNL1        0.1341
     30 C         141.7003  138.8076  163.3051 C.2     1  UNL1        0.2437
     31 O         141.7277  138.5418  164.0561 O.2     1  UNL1       -0.2731
     32 H         141.8538  136.4819  160.9404 H       1  UNL1        0.1240
     33 N         139.1695  147.5405  156.8268 N.1     1  UNL1       -0.1907
     34 C         139.6786  146.1317  156.7483 C.1     1  UNL1        0.1035
@<TRIPOS>BOND
     1    33    34    3
     2    34     1    1
     3     1     2   ar
     4     2     3   ar
     5     3     4   ar
     6     4     5   ar
     7     5     6   ar
     8     6     7    1
     9     7     8    1
    10     8     9   ar
    11     9    10   ar
    12    10    11   ar
    13    11    12   ar
    14    12    13   ar
    15    13    14   ar
    16    14    15   ar
    17    15    16   ar
    18    16    17   ar
    19    15    18    1
    20    18    19    1
    21    19    20    1
    22    21    20    1
    23    21    22    1
    24    22    23    1
    25    23    24    1
    26    24    25   ar
    27    25    26   ar
    28    26    27   ar
    29    27    28   ar
    30    28    29    1
    31    21    30    1
    32    30    31    2
    33     6     1   ar
    34    17     8   ar
    35    30    18   am
    36    29     4    1
    37    16    11   ar
    38    28    24   ar
    39    22    32    1
@<TRIPOS>MOLECULE
*****
 34 39 0 0 0
SMALL
GASTEIGER

@<TRIPOS>ATOM
      1 C         139.5451  146.8981  156.3788 C.ar    1  UNL1        0.1028
      2 C         139.6402  146.7180  154.8928 C.ar    1  UNL1        0.0131
      3 C         140.3210  145.5075  154.3259 C.ar    1  UNL1       -0.0015
      4 C         141.0094  144.2928  154.9733 C.ar    1  UNL1        0.0035
      5 C         140.4558  145.2812  155.9564 C.ar    1  UNL1        0.0358
      6 C         140.1307  145.8676  157.2982 C.ar    1  UNL1        0.1545
      7 O         140.0836  145.9626  158.7944 O.3     1  UNL1       -0.4528
      8 C         140.3217  145.5518  160.2174 C.ar    1  UNL1        0.1454
      9 C         139.9983  146.1370  161.8103 C.ar    1  UNL1        0.0375
     10 C         140.3259  145.5671  163.1585 C.ar    1  UNL1        0.0032
     11 C         141.0617  144.2642  163.2634 C.ar    1  UNL1        0.0014
     12 C         141.3888  143.6950  164.6122 C.ar    1  UNL1        0.0001
     13 C         142.1246  142.3922  164.7181 C.ar    1  UNL1        0.0013
     14 C         142.5333  141.6584  163.4753 C.ar    1  UNL1        0.0149
     15 C         142.2062  142.2276  162.1266 C.ar    1  UNL1        0.0539
     16 C         141.4704  143.5304  162.0207 C.ar    1  UNL1        0.0167
     17 C         140.8086  144.6977  161.3502 C.ar    1  UNL1        0.0387
     18 N         142.9040  140.9875  161.6518 N.am    1  UNL1       -0.2575
     19 C         143.5994  139.7594  162.1598 C.3     1  UNL1        0.1001
     20 C         144.0473  138.9566  160.9746 C.3     1  UNL1        0.0470
     21 C         143.7827  139.4127  159.3268 C.3     1  UNL1        0.1340
     22 N         143.8298  139.3177  157.8306 N.3     1  UNL1       -0.2863
     23 C         143.5917  139.7285  156.4077 C.3     1  UNL1        0.1151
     24 C         143.1047  140.5826  155.2748 C.ar    1  UNL1        0.0739
     25 C         143.6184  139.6642  154.2058 C.ar    1  UNL1        0.1147
     26 N         143.2741  140.2639  152.8748 N.ar    1  UNL1       -0.2226
     27 C         142.5477  141.5530  153.1210 C.ar    1  UNL1        0.1786
     28 N         142.4430  141.7499  154.6044 N.ar    1  UNL1       -0.3070
     29 C         141.7072  143.0528  154.4985 C.3     1  UNL1        0.1341
     30 C         143.4576  139.9991  160.6687 C.2     1  UNL1        0.2437
     31 O         143.7020  139.5710  161.2951 O.2     1  UNL1       -0.2731
     32 H         143.3914  138.3994  157.7599 H       1  UNL1        0.1240
     33 N         138.1837  149.3190  157.5126 N.1     1  UNL1       -0.1907
     34 C         138.8644  148.1086  156.9457 C.1     1  UNL1        0.1035
@<TRIPOS>BOND
     1    33    34    3
     2    34     1    1
     3     1     2   ar
     4     2     3   ar
     5     3     4   ar
     6     4     5   ar
     7     5     6   ar
     8     6     7    1
     9     7     8    1
    10     8     9   ar
    11     9    10   ar
    12    10    11   ar
    13    11    12   ar
    14    12    13   ar
    15    13    14   ar
    16    14    15   ar
    17    15    16   ar
    18    16    17   ar
    19    15    18    1
    20    18    19    1
    21    19    20    1
    22    21    20    1
    23    21    22    1
    24    22    23    1
    25    23    24    1
    26    24    25   ar
    27    25    26   ar
    28    26    27   ar
    29    27    28   ar
    30    28    29    1
    31    21    30    1
    32    30    31    2
    33     6     1   ar
    34    17     8   ar
    35    30    18   am
    36    29     4    1
    37    16    11   ar
    38    28    24   ar
    39    22    32    1
@<TRIPOS>MOLECULE
*****
 34 39 0 0 0
SMALL
GASTEIGER

@<TRIPOS>ATOM
      1 C         142.3770  137.5906  156.8162 C.ar    1  UNL1        0.1028
      2 C         142.0876  137.9021  155.3778 C.ar    1  UNL1        0.0131
      3 C         141.5939  139.2644  154.9900 C.ar    1  UNL1       -0.0015
      4 C         141.2859  140.5370  155.7988 C.ar    1  UNL1        0.0035
      5 C         141.7692  139.3842  156.6279 C.ar    1  UNL1        0.0358
      6 C         142.1728  138.6414  157.8670 C.ar    1  UNL1        0.1545
      7 O         142.4352  138.4217  159.3273 O.3     1  UNL1       -0.4528
      8 C         142.5166  138.7585  160.7868 C.ar    1  UNL1        0.1454
      9 C         142.9585  137.9975  162.2734 C.ar    1  UNL1        0.0375
     10 C         142.9750  138.5134  163.6818 C.ar    1  UNL1        0.0032
     11 C         142.5538  139.9242  163.9687 C.ar    1  UNL1        0.0014
     12 C         142.5707  140.4393  165.3774 C.ar    1  UNL1        0.0001
     13 C         142.1497  141.8499  165.6652 C.ar    1  UNL1        0.0013
     14 C         141.7119  142.7455  164.5445 C.ar    1  UNL1        0.0149
     15 C         141.6951  142.2305  163.1358 C.ar    1  UNL1        0.0539
     16 C         142.1161  140.8198  162.8479 C.ar    1  UNL1        0.0167
     17 C         142.4045  139.6007  162.0230 C.ar    1  UNL1        0.0387
     18 N         141.2057  143.6178  162.8428 N.am    1  UNL1       -0.2575
     19 C         140.8718  144.9159  163.5163 C.3     1  UNL1        0.1001
     20 C         140.4197  145.8823  162.4620 C.3     1  UNL1        0.0470
     21 C         140.3188  145.5135  160.7746 C.3     1  UNL1        0.1340
     22 N         140.0564  145.7332  159.3142 N.3     1  UNL1       -0.2863
     23 C         139.9750  145.3963  157.8548 C.3     1  UNL1        0.1151
     24 C         140.0871  144.5542  156.6185 C.ar    1  UNL1        0.0739
     25 C         139.6141  145.6374  155.6950 C.ar    1  UNL1        0.1147
     26 N         139.6103  145.0877  154.2994 N.ar    1  UNL1       -0.2226
     27 C         140.0809  143.6647  154.3603 C.ar    1  UNL1        0.1786
     28 N         140.3756  143.3350  155.7937 N.ar    1  UNL1       -0.3070
     29 C         140.7966  141.9243  155.5058 C.3     1  UNL1        0.1341
     30 C         140.7224  144.7707  162.0137 C.2     1  UNL1        0.2437
     31 O         140.6753  145.1883  162.6911 O.2     1  UNL1       -0.2731
     32 H         140.6601  146.5487  159.2104 H       1  UNL1        0.1240
     33 N         143.3642  134.8659  157.5917 N.1     1  UNL1       -0.1907
     34 C         142.8706  136.2282  157.2040 C.1     1  UNL1        0.1035
@<TRIPOS>BOND
     1    33    34    3
     2    34     1    1
     3     1     2   ar
     4     2     3   ar
     5     3     4   ar
     6     4     5   ar
     7     5     6   ar
     8     6     7    1
     9     7     8    1
    10     8     9   ar
    11     9    10   ar
    12    10    11   ar
    13    11    12   ar
    14    12    13   ar
    15    13    14   ar
    16    14    15   ar
    17    15    16   ar
    18    16    17   ar
    19    15    18    1
    20    18    19    1
    21    19    20    1
    22    21    20    1
    23    21    22    1
    24    22    23    1
    25    23    24    1
    26    24    25   ar
    27    25    26   ar
    28    26    27   ar
    29    27    28   ar
    30    28    29    1
    31    21    30    1
    32    30    31    2
    33     6     1   ar
    34    17     8   ar
    35    30    18   am
    36    29     4    1
    37    16    11   ar
    38    28    24   ar
    39    22    32    1
@<TRIPOS>MOLECULE
*****
 34 39 0 0 0
SMALL
GASTEIGER

@<TRIPOS>ATOM
      1 C         142.6110  136.2805  156.6524 C.ar    1  UNL1        0.1028
      2 C         142.0860  136.2297  155.2483 C.ar    1  UNL1        0.0131
      3 C         141.4049  137.4288  154.6582 C.ar    1  UNL1       -0.0015
      4 C         141.0890  138.8310  155.2083 C.ar    1  UNL1        0.0035
      5 C         141.8024  137.9370  156.1786 C.ar    1  UNL1        0.0358
      6 C         142.4550  137.5306  157.4667 C.ar    1  UNL1        0.1545
      7 O         142.9473  137.6738  158.8762 O.3     1  UNL1       -0.4528
      8 C         143.2045  138.3449  160.1930 C.ar    1  UNL1        0.1454
      9 C         143.9324  137.9809  161.7167 C.ar    1  UNL1        0.0375
     10 C         144.1000  138.8096  162.9557 C.ar    1  UNL1        0.0032
     11 C         143.5830  140.2172  162.9921 C.ar    1  UNL1        0.0014
     12 C         143.7511  141.0452  164.2316 C.ar    1  UNL1        0.0001
     13 C         143.2344  142.4529  164.2690 C.ar    1  UNL1        0.0013
     14 C         142.5498  143.0327  163.0669 C.ar    1  UNL1        0.0149
     15 C         142.3817  142.2048  161.8275 C.ar    1  UNL1        0.0539
     16 C         142.8984  140.7971  161.7901 C.ar    1  UNL1        0.0167
     17 C         143.1872  139.4416  161.2161 C.ar    1  UNL1        0.0387
     18 N         141.7160  143.4505  161.3225 N.am    1  UNL1       -0.2575
     19 C         141.3524  144.8443  161.7411 C.3     1  UNL1        0.1001
     20 C         140.6560  145.5072  160.5898 C.3     1  UNL1        0.0470
     21 C         140.3500  144.7510  159.0641 C.3     1  UNL1        0.1340
     22 N         139.8577  144.6077  157.6545 N.3     1  UNL1       -0.2863
     23 C         139.6005  143.9366  156.3378 C.3     1  UNL1        0.1151
     24 C         139.6177  142.8399  155.3146 C.ar    1  UNL1        0.0739
     25 C         138.9078  143.6452  154.2670 C.ar    1  UNL1        0.1147
     26 N         138.7580  142.7875  153.0456 N.ar    1  UNL1       -0.2226
     27 C         139.3753  141.4521  153.3383 C.ar    1  UNL1        0.1786
     28 N         139.9066  141.4845  154.7407 N.ar    1  UNL1       -0.3070
     29 C         140.4233  140.0768  154.7033 C.3     1  UNL1        0.1341
     30 C         141.0025  144.3447  160.3522 C.2     1  UNL1        0.2437
     31 O         141.0116  144.9040  160.9201 O.2     1  UNL1       -0.2731
     32 H         140.3535  145.4152  157.2769 H       1  UNL1        0.1240
     33 N         143.9732  133.8822  157.8325 N.1     1  UNL1       -0.1907
     34 C         143.2922  135.0814  157.2424 C.1     1  UNL1        0.1035
@<TRIPOS>BOND
     1    33    34    3
     2    34     1    1
     3     1     2   ar
     4     2     3   ar
     5     3     4   ar
     6     4     5   ar
     7     5     6   ar
     8     6     7    1
     9     7     8    1
    10     8     9   ar
    11     9    10   ar
    12    10    11   ar
    13    11    12   ar
    14    12    13   ar
    15    13    14   ar
    16    14    15   ar
    17    15    16   ar
    18    16    17   ar
    19    15    18    1
    20    18    19    1
    21    19    20    1
    22    21    20    1
    23    21    22    1
    24    22    23    1
    25    23    24    1
    26    24    25   ar
    27    25    26   ar
    28    26    27   ar
    29    27    28   ar
    30    28    29    1
    31    21    30    1
    32    30    31    2
    33     6     1   ar
    34    17     8   ar
    35    30    18   am
    36    29     4    1
    37    16    11   ar
    38    28    24   ar
    39    22    32    1
@<TRIPOS>MOLECULE
*****
 34 39 0 0 0
SMALL
GASTEIGER

@<TRIPOS>ATOM
      1 C         145.4729  142.4998  157.3645 C.ar    1  UNL1        0.1028
      2 C         145.0181  142.4732  155.9355 C.ar    1  UNL1        0.0131
      3 C         143.5853  142.1718  155.6098 C.ar    1  UNL1       -0.0015
      4 C         142.3571  141.8535  156.4808 C.ar    1  UNL1        0.0035
      5 C         143.6167  142.0928  157.2592 C.ar    1  UNL1        0.0358
      6 C         144.4949  142.2249  158.4681 C.ar    1  UNL1        0.1545
      7 O         144.8576  142.2297  159.9235 O.3     1  UNL1       -0.4528
      8 C         144.6498  142.1064  161.4040 C.ar    1  UNL1        0.1454
      9 C         145.5698  142.2349  162.8605 C.ar    1  UNL1        0.0375
     10 C         145.1737  142.0719  164.2980 C.ar    1  UNL1        0.0032
     11 C         143.7547  141.7382  164.6517 C.ar    1  UNL1        0.0014
     12 C         143.3594  141.5755  166.0895 C.ar    1  UNL1        0.0001
     13 C         141.9407  141.2418  166.4442 C.ar    1  UNL1        0.0013
     14 C         140.9171  141.0708  165.3611 C.ar    1  UNL1        0.0149
     15 C         141.3124  141.2335  163.9233 C.ar    1  UNL1        0.0539
     16 C         142.7311  141.5673  163.5686 C.ar    1  UNL1        0.0167
     17 C         143.9031  141.8737  162.6839 C.ar    1  UNL1        0.0387
     18 N         139.8628  140.9234  163.6940 N.am    1  UNL1       -0.2575
     19 C         138.5958  140.6035  164.4304 C.3     1  UNL1        0.1001
     20 C         137.5060  140.4142  163.4173 C.3     1  UNL1        0.0470
     21 C         137.7250  140.5520  161.7067 C.3     1  UNL1        0.1340
     22 N         137.3623  140.5473  160.2512 N.3     1  UNL1       -0.2863
     23 C         137.5701  140.6706  158.7708 C.3     1  UNL1        0.1151
     24 C         138.3168  140.9032  157.4908 C.ar    1  UNL1        0.0739
     25 C         137.1195  140.6829  156.6144 C.ar    1  UNL1        0.1147
     26 N         137.5516  140.8532  155.1881 N.ar    1  UNL1       -0.2226
     27 C         139.0158  141.1788  155.1830 C.ar    1  UNL1        0.1786
     28 N         139.4887  141.2097  156.6061 N.ar    1  UNL1       -0.3070
     29 C         140.9075  141.5434  156.2515 C.3     1  UNL1        0.1341
     30 C         138.6031  140.6841  162.9156 C.2     1  UNL1        0.2437
     31 O         138.2388  140.5667  163.6149 O.2     1  UNL1       -0.2731
     32 H         136.6078  141.2304  160.3186 H       1  UNL1        0.1240
     33 N         148.3386  143.1025  158.0158 N.1     1  UNL1       -0.1907
     34 C         146.9058  142.8012  157.6902 C.1     1  UNL1        0.1035
@<TRIPOS>BOND
     1    33    34    3
     2    34     1    1
     3     1     2   ar
     4     2     3   ar
     5     3     4   ar
     6     4     5   ar
     7     5     6   ar
     8     6     7    1
     9     7     8    1
    10     8     9   ar
    11     9    10   ar
    12    10    11   ar
    13    11    12   ar
    14    12    13   ar
    15    13    14   ar
    16    14    15   ar
    17    15    16   ar
    18    16    17   ar
    19    15    18    1
    20    18    19    1
    21    19    20    1
    22    21    20    1
    23    21    22    1
    24    22    23    1
    25    23    24    1
    26    24    25   ar
    27    25    26   ar
    28    26    27   ar
    29    27    28   ar
    30    28    29    1
    31    21    30    1
    32    30    31    2
    33     6     1   ar
    34    17     8   ar
    35    30    18   am
    36    29     4    1
    37    16    11   ar
    38    28    24   ar
    39    22    32    1
@<TRIPOS>MOLECULE
*****
 34 39 0 0 0
SMALL
GASTEIGER

@<TRIPOS>ATOM
      1 C         143.1934  134.2012  156.7239 C.ar    1  UNL1        0.1028
      2 C         142.7125  133.6005  155.4364 C.ar    1  UNL1        0.0131
      3 C         141.6594  134.3003  154.6293 C.ar    1  UNL1       -0.0015
      4 C         140.8840  135.6141  154.8324 C.ar    1  UNL1        0.0035
      5 C         141.8642  135.3043  155.9247 C.ar    1  UNL1        0.0358
      6 C         142.6213  135.5018  157.2045 C.ar    1  UNL1        0.1545
      7 O         143.0397  136.1768  158.4769 O.3     1  UNL1       -0.4528
      8 C         143.0561  137.2265  159.5484 C.ar    1  UNL1        0.1454
      9 C         143.8702  137.5514  161.0370 C.ar    1  UNL1        0.0375
     10 C         143.7481  138.6930  162.0023 C.ar    1  UNL1        0.0032
     11 C         142.7800  139.8057  161.7292 C.ar    1  UNL1        0.0014
     12 C         142.6586  140.9469  162.6951 C.ar    1  UNL1        0.0001
     13 C         141.6908  142.0602  162.4228 C.ar    1  UNL1        0.0013
     14 C         140.8445  142.0323  161.1848 C.ar    1  UNL1        0.0149
     15 C         140.9659  140.8911  160.2189 C.ar    1  UNL1        0.0539
     16 C         141.9337  139.7778  160.4911 C.ar    1  UNL1        0.0167
     17 C         142.6677  138.4910  160.2556 C.ar    1  UNL1        0.0387
     18 N         139.9116  141.6612  159.4804 N.am    1  UNL1       -0.2575
     19 C         139.0937  142.9159  159.5638 C.3     1  UNL1        0.1001
     20 C         138.2081  142.9731  158.3545 C.3     1  UNL1        0.0470
     21 C         138.1743  141.7734  157.1083 C.3     1  UNL1        0.1340
     22 N         137.7558  141.0984  155.8358 N.3     1  UNL1       -0.2863
     23 C         137.7396  140.0487  154.7644 C.3     1  UNL1        0.1151
     24 C         138.1279  138.7843  154.0571 C.ar    1  UNL1        0.0739
     25 C         137.1812  138.9940  152.9127 C.ar    1  UNL1        0.1147
     26 N         137.3300  137.8368  151.9700 N.ar    1  UNL1       -0.2226
     27 C         138.3688  136.9119  152.5318 C.ar    1  UNL1        0.1786
     28 N         138.8619  137.4975  153.8217 N.ar    1  UNL1       -0.3070
     29 C         139.8297  136.3842  154.0939 C.3     1  UNL1        0.1341
     30 C         138.9313  141.9711  158.3881 C.2     1  UNL1        0.2437
     31 O         138.7502  142.6344  158.7914 O.2     1  UNL1       -0.2731
     32 H         137.9435  141.8890  155.2193 H       1  UNL1        0.1240
     33 N         145.2996  132.8015  158.3378 N.1     1  UNL1       -0.1907
     34 C         144.2465  133.5014  157.5309 C.1     1  UNL1        0.1035
@<TRIPOS>BOND
     1    33    34    3
     2    34     1    1
     3     1     2   ar
     4     2     3   ar
     5     3     4   ar
     6     4     5   ar
     7     5     6   ar
     8     6     7    1
     9     7     8    1
    10     8     9   ar
    11     9    10   ar
    12    10    11   ar
    13    11    12   ar
    14    12    13   ar
    15    13    14   ar
    16    14    15   ar
    17    15    16   ar
    18    16    17   ar
    19    15    18    1
    20    18    19    1
    21    19    20    1
    22    21    20    1
    23    21    22    1
    24    22    23    1
    25    23    24    1
    26    24    25   ar
    27    25    26   ar
    28    26    27   ar
    29    27    28   ar
    30    28    29    1
    31    21    30    1
    32    30    31    2
    33     6     1   ar
    34    17     8   ar
    35    30    18   am
    36    29     4    1
    37    16    11   ar
    38    28    24   ar
    39    22    32    1
@<TRIPOS>MOLECULE
*****
 34 39 0 0 0
SMALL
GASTEIGER

@<TRIPOS>ATOM
      1 C         142.3123  137.7274  154.9525 C.ar    1  UNL1        0.1028
      2 C         142.7252  136.5568  155.7946 C.ar    1  UNL1        0.0131
      3 C         142.7857  136.6910  157.2874 C.ar    1  UNL1       -0.0015
      4 C         142.4960  137.8585  158.2473 C.ar    1  UNL1        0.0035
      5 C         142.2967  138.1908  156.7983 C.ar    1  UNL1        0.0358
      6 C         141.9599  139.0322  155.6030 C.ar    1  UNL1        0.1545
      7 O         141.5369  140.2546  154.8436 O.3     1  UNL1       -0.4528
      8 C         141.0920  141.6720  154.6356 C.ar    1  UNL1        0.1454
      9 C         140.6827  142.7272  153.3305 C.ar    1  UNL1        0.0375
     10 C         140.2459  144.1621  153.3188 C.ar    1  UNL1        0.0032
     11 C         140.1049  144.9138  154.6092 C.ar    1  UNL1        0.0014
     12 C         139.6680  146.3487  154.5964 C.ar    1  UNL1        0.0001
     13 C         139.5268  147.1012  155.8864 C.ar    1  UNL1        0.0013
     14 C         139.8226  146.4188  157.1890 C.ar    1  UNL1        0.0149
     15 C         140.2595  144.9839  157.2017 C.ar    1  UNL1        0.0539
     16 C         140.4007  144.2314  155.9118 C.ar    1  UNL1        0.0167
     17 C         140.6930  143.0684  155.0107 C.ar    1  UNL1        0.0387
     18 N         140.2910  145.2113  158.6841 N.am    1  UNL1       -0.2575
     19 C         140.0403  146.2674  159.7194 C.3     1  UNL1        0.1001
     20 C         140.3136  145.6690  161.0674 C.3     1  UNL1        0.0470
     21 C         140.8271  144.0376  161.3284 C.3     1  UNL1        0.1340
     22 N         141.2501  142.8152  162.0878 N.3     1  UNL1       -0.2863
     23 C         141.6950  141.3978  162.2958 C.3     1  UNL1        0.1151
     24 C         142.0940  140.0014  161.9207 C.ar    1  UNL1        0.0739
     25 C         142.3239  139.5605  163.3359 C.ar    1  UNL1        0.1147
     26 N         142.7584  138.1251  163.3094 N.ar    1  UNL1       -0.2226
     27 C         142.7969  137.6787  161.8779 C.ar    1  UNL1        0.1786
     28 N         142.3863  138.8384  161.0196 N.ar    1  UNL1       -0.3070
     29 C         142.5275  138.0859  159.7297 C.3     1  UNL1        0.1341
     30 C         140.4903  144.8790  160.1332 C.2     1  UNL1        0.2437
     31 O         140.2734  145.6288  160.2953 O.2     1  UNL1       -0.2731
     32 H         140.4330  142.7696  162.6966 H       1  UNL1        0.1240
     33 N         142.1913  137.4591  151.9670 N.1     1  UNL1       -0.1907
     34 C         142.2518  137.5932  153.4597 C.1     1  UNL1        0.1035
@<TRIPOS>BOND
     1    33    34    3
     2    34     1    1
     3     1     2   ar
     4     2     3   ar
     5     3     4   ar
     6     4     5   ar
     7     5     6   ar
     8     6     7    1
     9     7     8    1
    10     8     9   ar
    11     9    10   ar
    12    10    11   ar
    13    11    12   ar
    14    12    13   ar
    15    13    14   ar
    16    14    15   ar
    17    15    16   ar
    18    16    17   ar
    19    15    18    1
    20    18    19    1
    21    19    20    1
    22    21    20    1
    23    21    22    1
    24    22    23    1
    25    23    24    1
    26    24    25   ar
    27    25    26   ar
    28    26    27   ar
    29    27    28   ar
    30    28    29    1
    31    21    30    1
    32    30    31    2
    33     6     1   ar
    34    17     8   ar
    35    30    18   am
    36    29     4    1
    37    16    11   ar
    38    28    24   ar
    39    22    32    1
@<TRIPOS>MOLECULE
*****
 34 39 0 0 0
SMALL
GASTEIGER

@<TRIPOS>ATOM
      1 C         139.4903  138.8635  155.0746 C.ar    1  UNL1        0.1028
      2 C         140.4005  138.8656  153.8824 C.ar    1  UNL1        0.0131
      3 C         141.7708  139.4670  153.9860 C.ar    1  UNL1       -0.0015
      4 C         142.5329  140.1463  155.1375 C.ar    1  UNL1        0.0035
      5 C         141.1518  139.6877  155.5012 C.ar    1  UNL1        0.0358
      6 C         139.9502  139.4628  156.3705 C.ar    1  UNL1        0.1545
      7 O         139.1110  139.5061  157.6129 O.3     1  UNL1       -0.4528
      8 C         138.7620  139.8109  159.0396 C.ar    1  UNL1        0.1454
      9 C         137.4349  139.6024  160.1258 C.ar    1  UNL1        0.0375
     10 C         137.2660  139.9862  161.5660 C.ar    1  UNL1        0.0032
     11 C         138.3805  140.6781  162.2934 C.ar    1  UNL1        0.0014
     12 C         138.2107  141.0616  163.7335 C.ar    1  UNL1        0.0001
     13 C         139.3247  141.7536  164.4618 C.ar    1  UNL1        0.0013
     14 C         140.6084  142.0620  163.7499 C.ar    1  UNL1        0.0149
     15 C         140.7782  141.6786  162.3098 C.ar    1  UNL1        0.0539
     16 C         139.6642  140.9866  161.5815 C.ar    1  UNL1        0.0167
     17 C         138.9563  140.3308  160.4331 C.ar    1  UNL1        0.0387
     18 N         142.1285  142.3013  162.5071 N.am    1  UNL1       -0.2575
     19 C         142.9729  142.9790  163.5452 C.3     1  UNL1        0.1001
     20 C         144.2895  143.3274  162.9167 C.3     1  UNL1        0.0470
     21 C         144.7112  142.9847  161.2741 C.3     1  UNL1        0.1340
     22 N         145.5504  142.9415  160.0316 N.3     1  UNL1       -0.2863
     23 C         145.8994  142.6367  158.6050 C.3     1  UNL1        0.1151
     24 C         145.7052  142.1168  157.2114 C.ar    1  UNL1        0.0739
     25 C         147.0668  142.5333  156.7396 C.ar    1  UNL1        0.1147
     26 N         147.2002  142.1348  155.2996 N.ar    1  UNL1       -0.2226
     27 C         145.9211  141.4721  154.8815 C.ar    1  UNL1        0.1786
     28 N         144.9971  141.4609  156.0631 N.ar    1  UNL1       -0.3070
     29 C         143.8832  140.7690  155.3348 C.3     1  UNL1        0.1341
     30 C         143.5096  142.7600  162.1434 C.2     1  UNL1        0.2437
     31 O         143.5775  143.0242  162.8924 O.2     1  UNL1       -0.2731
     32 H         146.3502  142.4660  160.4496 H       1  UNL1        0.1240
     33 N         136.7498  137.6607  154.8676 N.1     1  UNL1       -0.1907
     34 C         138.1200  138.2621  154.9711 C.1     1  UNL1        0.1035
@<TRIPOS>BOND
     1    33    34    3
     2    34     1    1
     3     1     2   ar
     4     2     3   ar
     5     3     4   ar
     6     4     5   ar
     7     5     6   ar
     8     6     7    1
     9     7     8    1
    10     8     9   ar
    11     9    10   ar
    12    10    11   ar
    13    11    12   ar
    14    12    13   ar
    15    13    14   ar
    16    14    15   ar
    17    15    16   ar
    18    16    17   ar
    19    15    18    1
    20    18    19    1
    21    19    20    1
    22    21    20    1
    23    21    22    1
    24    22    23    1
    25    23    24    1
    26    24    25   ar
    27    25    26   ar
    28    26    27   ar
    29    27    28   ar
    30    28    29    1
    31    21    30    1
    32    30    31    2
    33     6     1   ar
    34    17     8   ar
    35    30    18   am
    36    29     4    1
    37    16    11   ar
    38    28    24   ar
    39    22    32    1
