@<TRIPOS>MOLECULE
*****
 33 37 0 0 0
SMALL
GASTEIGER

@<TRIPOS>ATOM
      1 C         140.0063  143.5128  160.5490 C.3     1  UNL1        0.0294
      2 C         140.1046  145.0066  160.6435 C.3     1  UNL1        0.0666
      3 S         139.9253  145.6878  161.9678 S.3     1  UNL1       -0.0756
      4 C         142.2977  144.7558  164.0057 C.3     1  UNL1        0.1340
      5 N         140.8378  144.4426  164.1499 N.ar    1  UNL1       -0.2884
      6 C         139.7474  144.8709  163.2132 C.ar    1  UNL1        0.1932
      7 N         138.4478  144.3391  163.7406 N.ar    1  UNL1       -0.1221
      8 N         138.7350  143.5820  165.0032 N.ar    1  UNL1       -0.1282
      9 C         140.2121  143.6459  165.2563 C.ar    1  UNL1        0.1670
     10 C         140.9364  143.0226  166.4126 C.ar    1  UNL1        0.0422
     11 C         142.2787  142.3871  166.2022 C.ar    1  UNL1        0.0219
     12 C         143.0029  141.7638  167.3585 C.ar    1  UNL1        0.0785
     13 N         142.3847  141.7762  168.7252 N.ar    1  UNL1       -0.2922
     14 C         143.1089  141.1529  169.8816 C.3     1  UNL1        0.1336
     15 C         141.0424  142.4117  168.9356 C.ar    1  UNL1        0.2611
     16 O         140.4243  142.4240  170.3023 O.2     1  UNL1       -0.2670
     17 C         140.3182  143.0350  167.7792 C.ar    1  UNL1        0.0638
     18 C         141.2509  142.6861  160.4165 C.3     1  UNL1        0.0731
     19 N         141.6590  141.7620  161.5254 N.3     1  UNL1       -0.2712
     20 C         143.0609  141.3368  161.8477 C.3     1  UNL1        0.0738
     21 C         143.0052  140.4129  163.0281 C.3     1  UNL1        0.0372
     22 C         143.8371  139.5791  163.9568 C.3     1  UNL1        0.0245
     23 C         142.9151  138.9180  164.9381 C.3     1  UNL1        0.0909
     24 N         141.5131  139.3433  164.6157 N.pl3   1  UNL1       -0.3077
     25 C         141.5689  140.2672  163.4353 C.3     1  UNL1        0.0901
     26 C         140.7369  141.1010  162.5066 C.3     1  UNL1        0.0921
     27 C         140.2732  138.9192  165.3456 C.ar    1  UNL1        0.0480
     28 C         139.5165  137.7047  164.8958 C.ar    1  UNL1        0.0168
     29 C         138.2767  137.2806  165.6258 C.ar    1  UNL1        0.0309
     30 C         137.7935  138.0710  166.8055 C.ar    1  UNL1        0.1402
     31 F         136.5536  137.6468  167.5354 F       1  UNL1       -0.2042
     32 C         138.5502  139.2855  167.2553 C.ar    1  UNL1        0.0309
     33 C         139.7901  139.7097  166.5254 C.ar    1  UNL1        0.0168
@<TRIPOS>BOND
     1     4     5    1
     2     5     6   ar
     3     6     3    1
     4     3     2    1
     5     2     1    1
     6     1    18    1
     7    18    19    1
     8    19    20    1
     9    20    21    1
    10    21    22    1
    11    22    23    1
    12    23    24    1
    13    24    27    1
    14    27    28   ar
    15    28    29   ar
    16    29    30   ar
    17    30    31    1
    18    30    32   ar
    19    32    33   ar
    20    24    25    1
    21    25    26    1
    22     6     7   ar
    23     7     8   ar
    24     8     9   ar
    25     9    10    1
    26    10    11   ar
    27    11    12   ar
    28    12    13   ar
    29    13    14    1
    30    13    15   ar
    31    15    16    2
    32    15    17   ar
    33     9     5   ar
    34    17    10   ar
    35    26    19    1
    36    25    21    1
    37    33    27   ar
@<TRIPOS>MOLECULE
*****
 33 37 0 0 0
SMALL
GASTEIGER

@<TRIPOS>ATOM
      1 C         143.7162  142.8935  160.2418 C.3     1  UNL1        0.0294
      2 C         144.6299  142.9802  161.4283 C.3     1  UNL1        0.0666
      3 S         145.0660  141.7294  162.1321 S.3     1  UNL1       -0.0756
      4 C         144.5875  142.9253  165.1305 C.3     1  UNL1        0.1340
      5 N         143.9765  141.6742  164.5724 N.ar    1  UNL1       -0.2884
      6 C         144.1964  141.1245  163.1942 C.ar    1  UNL1        0.1932
      7 N         143.3942  139.8638  163.0645 N.ar    1  UNL1       -0.1221
      8 N         142.6784  139.6343  164.3625 N.ar    1  UNL1       -0.1282
      9 C         143.0383  140.7532  165.2945 C.ar    1  UNL1        0.1670
     10 C         142.5463  140.9215  166.7015 C.ar    1  UNL1        0.0422
     11 C         141.9428  142.2247  167.1342 C.ar    1  UNL1        0.0219
     12 C         141.4508  142.3930  168.5412 C.ar    1  UNL1        0.0785
     13 N         141.5625  141.2580  169.5155 N.ar    1  UNL1       -0.2922
     14 C         141.0705  141.4263  170.9225 C.3     1  UNL1        0.1336
     15 C         142.1660  139.9547  169.0829 C.ar    1  UNL1        0.2611
     16 O         142.2777  138.8197  170.0572 O.2     1  UNL1       -0.2670
     17 C         142.6580  139.7865  167.6758 C.ar    1  UNL1        0.0638
     18 C         142.3955  143.6043  160.2587 C.3     1  UNL1        0.0731
     19 N         141.5528  143.5919  161.4996 N.3     1  UNL1       -0.2712
     20 C         141.0918  144.7971  162.2643 C.3     1  UNL1        0.0738
     21 C         140.2773  144.3221  163.4309 C.3     1  UNL1        0.0372
     22 C         139.4890  144.7734  164.6246 C.3     1  UNL1        0.0245
     23 C         138.9594  143.5535  165.3186 C.3     1  UNL1        0.0909
     24 N         139.4205  142.3483  164.5538 N.pl3   1  UNL1       -0.3077
     25 C         140.2350  142.8233  163.3872 C.3     1  UNL1        0.0901
     26 C         141.0233  142.3720  162.1935 C.3     1  UNL1        0.0921
     27 C         139.1199  140.9190  164.8956 C.ar    1  UNL1        0.0480
     28 C         139.0336  139.8899  163.8078 C.ar    1  UNL1        0.0168
     29 C         138.7330  138.4606  164.1496 C.ar    1  UNL1        0.0309
     30 C         138.5186  138.0605  165.5792 C.ar    1  UNL1        0.1402
     31 F         138.2179  136.6312  165.9210 F       1  UNL1       -0.2042
     32 C         138.6048  139.0897  166.6671 C.ar    1  UNL1        0.0309
     33 C         138.9054  140.5189  166.3253 C.ar    1  UNL1        0.0168
@<TRIPOS>BOND
     1     4     5    1
     2     5     6   ar
     3     6     3    1
     4     3     2    1
     5     2     1    1
     6     1    18    1
     7    18    19    1
     8    19    20    1
     9    20    21    1
    10    21    22    1
    11    22    23    1
    12    23    24    1
    13    24    27    1
    14    27    28   ar
    15    28    29   ar
    16    29    30   ar
    17    30    31    1
    18    30    32   ar
    19    32    33   ar
    20    24    25    1
    21    25    26    1
    22     6     7   ar
    23     7     8   ar
    24     8     9   ar
    25     9    10    1
    26    10    11   ar
    27    11    12   ar
    28    12    13   ar
    29    13    14    1
    30    13    15   ar
    31    15    16    2
    32    15    17   ar
    33     9     5   ar
    34    17    10   ar
    35    26    19    1
    36    25    21    1
    37    33    27   ar
@<TRIPOS>MOLECULE
*****
 33 37 0 0 0
SMALL
GASTEIGER

@<TRIPOS>ATOM
      1 C         142.5375  138.4750  159.2469 C.3     1  UNL1        0.0294
      2 C         142.1885  138.0564  160.6445 C.3     1  UNL1        0.0666
      3 S         143.2749  137.8385  161.6555 S.3     1  UNL1       -0.0756
      4 C         141.3286  137.3965  164.2374 C.3     1  UNL1        0.1340
      5 N         142.3988  138.4396  164.1083 N.ar    1  UNL1       -0.2884
      6 C         143.2934  138.6428  162.9215 C.ar    1  UNL1        0.1932
      7 N         144.2097  139.7915  163.2230 N.ar    1  UNL1       -0.1221
      8 N         143.8815  140.2982  164.5961 N.ar    1  UNL1       -0.1282
      9 C         142.7622  139.4628  165.1433 C.ar    1  UNL1        0.1670
     10 C         142.1194  139.6224  166.4891 C.ar    1  UNL1        0.0422
     11 C         140.7102  140.1261  166.5922 C.ar    1  UNL1        0.0219
     12 C         140.0674  140.2857  167.9380 C.ar    1  UNL1        0.0785
     13 N         140.8338  139.9417  169.1808 N.ar    1  UNL1       -0.2922
     14 C         140.1909  140.1014  170.5266 C.3     1  UNL1        0.1336
     15 C         142.2429  139.4381  169.0777 C.ar    1  UNL1        0.2611
     16 O         143.0092  139.0941  170.3205 O.2     1  UNL1       -0.2670
     17 C         142.8857  139.2784  167.7318 C.ar    1  UNL1        0.0638
     18 C         142.5035  139.9260  158.8680 C.3     1  UNL1        0.0731
     19 N         142.7600  140.9783  159.9056 N.3     1  UNL1       -0.2712
     20 C         144.0801  141.6302  160.1928 C.3     1  UNL1        0.0738
     21 C         143.8773  142.6183  161.3029 C.3     1  UNL1        0.0372
     22 C         144.5679  143.6319  162.1665 C.3     1  UNL1        0.0245
     23 C         143.5494  144.2173  163.0992 C.3     1  UNL1        0.0909
     24 N         142.2292  143.5654  162.8120 N.pl3   1  UNL1       -0.3077
     25 C         142.4320  142.5772  161.7019 C.3     1  UNL1        0.0901
     26 C         141.7414  141.5636  160.8383 C.3     1  UNL1        0.0921
     27 C         140.9338  143.8515  163.5121 C.ar    1  UNL1        0.0480
     28 C         140.7944  143.5656  164.9780 C.ar    1  UNL1        0.0168
     29 C         139.4990  143.8517  165.6780 C.ar    1  UNL1        0.0309
     30 C         138.3430  144.4237  164.9123 C.ar    1  UNL1        0.1402
     31 F         137.0477  144.7098  165.6124 F       1  UNL1       -0.2042
     32 C         138.4824  144.7097  163.4463 C.ar    1  UNL1        0.0309
     33 C         139.7778  144.4236  162.7463 C.ar    1  UNL1        0.0168
@<TRIPOS>BOND
     1     4     5    1
     2     5     6   ar
     3     6     3    1
     4     3     2    1
     5     2     1    1
     6     1    18    1
     7    18    19    1
     8    19    20    1
     9    20    21    1
    10    21    22    1
    11    22    23    1
    12    23    24    1
    13    24    27    1
    14    27    28   ar
    15    28    29   ar
    16    29    30   ar
    17    30    31    1
    18    30    32   ar
    19    32    33   ar
    20    24    25    1
    21    25    26    1
    22     6     7   ar
    23     7     8   ar
    24     8     9   ar
    25     9    10    1
    26    10    11   ar
    27    11    12   ar
    28    12    13   ar
    29    13    14    1
    30    13    15   ar
    31    15    16    2
    32    15    17   ar
    33     9     5   ar
    34    17    10   ar
    35    26    19    1
    36    25    21    1
    37    33    27   ar
@<TRIPOS>MOLECULE
*****
 33 37 0 0 0
SMALL
GASTEIGER

@<TRIPOS>ATOM
      1 C         141.4765  144.6267  160.0151 C.3     1  UNL1        0.0294
      2 C         140.5364  145.2687  160.9918 C.3     1  UNL1        0.0666
      3 S         140.9898  145.5531  162.3931 S.3     1  UNL1       -0.0756
      4 C         142.8537  143.8024  164.4206 C.3     1  UNL1        0.1340
      5 N         141.3572  143.8970  164.4589 N.ar    1  UNL1       -0.2884
      6 C         140.5005  144.7017  163.5270 C.ar    1  UNL1        0.1932
      7 N         139.0684  144.5055  163.9279 N.ar    1  UNL1       -0.1221
      8 N         139.0401  143.5796  165.1077 N.ar    1  UNL1       -0.1282
      9 C         140.4546  143.2035  165.4359 C.ar    1  UNL1        0.1670
     10 C         140.8901  142.2936  166.5461 C.ar    1  UNL1        0.0422
     11 C         140.5476  142.6279  167.9677 C.ar    1  UNL1        0.0219
     12 C         140.9831  141.7180  169.0779 C.ar    1  UNL1        0.0785
     13 N         141.7611  140.4739  168.7664 N.ar    1  UNL1       -0.2922
     14 C         142.1966  139.5641  169.8766 C.3     1  UNL1        0.1336
     15 C         142.1035  140.1396  167.3448 C.ar    1  UNL1        0.2611
     16 O         142.8815  138.8955  167.0334 O.2     1  UNL1       -0.2670
     17 C         141.6680  141.0496  166.2346 C.ar    1  UNL1        0.0638
     18 C         142.1961  143.3639  160.3858 C.3     1  UNL1        0.0731
     19 N         141.4359  142.0770  160.5128 N.3     1  UNL1       -0.2712
     20 C         141.1445  141.1119  159.4021 C.3     1  UNL1        0.0738
     21 C         140.3621  139.9678  159.9757 C.3     1  UNL1        0.0372
     22 C         139.6984  138.6642  159.6437 C.3     1  UNL1        0.0245
     23 C         139.0960  138.1166  160.9036 C.3     1  UNL1        0.0909
     24 N         139.3874  139.0819  162.0143 N.pl3   1  UNL1       -0.3077
     25 C         140.1699  140.2259  161.4408 C.3     1  UNL1        0.0901
     26 C         140.8335  141.5295  161.7727 C.3     1  UNL1        0.0921
     27 C         138.9697  138.9297  163.4469 C.ar    1  UNL1        0.0480
     28 C         139.0187  137.5819  164.1033 C.ar    1  UNL1        0.0168
     29 C         138.6010  137.4298  165.5359 C.ar    1  UNL1        0.0309
     30 C         138.1343  138.6254  166.3121 C.ar    1  UNL1        0.1402
     31 F         137.7166  138.4733  167.7447 F       1  UNL1       -0.2042
     32 C         138.0853  139.9734  165.6557 C.ar    1  UNL1        0.0309
     33 C         138.5030  140.1255  164.2231 C.ar    1  UNL1        0.0168
@<TRIPOS>BOND
     1     4     5    1
     2     5     6   ar
     3     6     3    1
     4     3     2    1
     5     2     1    1
     6     1    18    1
     7    18    19    1
     8    19    20    1
     9    20    21    1
    10    21    22    1
    11    22    23    1
    12    23    24    1
    13    24    27    1
    14    27    28   ar
    15    28    29   ar
    16    29    30   ar
    17    30    31    1
    18    30    32   ar
    19    32    33   ar
    20    24    25    1
    21    25    26    1
    22     6     7   ar
    23     7     8   ar
    24     8     9   ar
    25     9    10    1
    26    10    11   ar
    27    11    12   ar
    28    12    13   ar
    29    13    14    1
    30    13    15   ar
    31    15    16    2
    32    15    17   ar
    33     9     5   ar
    34    17    10   ar
    35    26    19    1
    36    25    21    1
    37    33    27   ar
@<TRIPOS>MOLECULE
*****
 33 37 0 0 0
SMALL
GASTEIGER

@<TRIPOS>ATOM
      1 C         140.1691  143.1987  159.2115 C.3     1  UNL1        0.0294
      2 C         140.1003  144.6926  159.0944 C.3     1  UNL1        0.0666
      3 S         140.4650  145.5544  160.2666 S.3     1  UNL1       -0.0756
      4 C         142.6451  144.1645  162.2579 C.3     1  UNL1        0.1340
      5 N         141.2044  144.4332  162.5778 N.ar    1  UNL1       -0.2884
      6 C         140.2024  145.0721  161.6625 C.ar    1  UNL1        0.1932
      7 N         138.8915  145.1440  162.3881 N.ar    1  UNL1       -0.1221
      8 N         139.0834  144.5495  163.7519 N.ar    1  UNL1       -0.1282
      9 C         140.5129  144.1102  163.8691 C.ar    1  UNL1        0.1670
     10 C         141.1406  143.4618  165.0673 C.ar    1  UNL1        0.0422
     11 C         142.6112  143.1668  165.0762 C.ar    1  UNL1        0.0219
     12 C         143.2389  142.5184  166.2743 C.ar    1  UNL1        0.0785
     13 N         142.3958  142.1651  167.4637 N.ar    1  UNL1       -0.2922
     14 C         143.0234  141.5167  168.6619 C.3     1  UNL1        0.1336
     15 C         140.9251  142.4602  167.4548 C.ar    1  UNL1        0.2611
     16 O         140.0821  142.1068  168.6442 O.2     1  UNL1       -0.2670
     17 C         140.2975  143.1086  166.2566 C.ar    1  UNL1        0.0638
     18 C         138.9773  142.4288  159.6981 C.3     1  UNL1        0.0731
     19 N         139.0019  141.7857  161.0530 N.3     1  UNL1       -0.2712
     20 C         137.8201  141.5824  161.9541 C.3     1  UNL1        0.0738
     21 C         138.3006  140.9041  163.2027 C.3     1  UNL1        0.0372
     22 C         137.8671  140.3592  164.5313 C.3     1  UNL1        0.0245
     23 C         139.0780  139.8065  165.2231 C.3     1  UNL1        0.0909
     24 N         140.2598  140.0099  164.3219 N.pl3   1  UNL1       -0.3077
     25 C         139.7793  140.6882  163.0733 C.3     1  UNL1        0.0901
     26 C         140.2128  141.2331  161.7447 C.3     1  UNL1        0.0921
     27 C         141.6738  139.6059  164.6175 C.ar    1  UNL1        0.0480
     28 C         142.7465  139.8257  163.5924 C.ar    1  UNL1        0.0168
     29 C         144.1605  139.4216  163.8881 C.ar    1  UNL1        0.0309
     30 C         144.5018  138.7978  165.2088 C.ar    1  UNL1        0.1402
     31 F         145.9158  138.3938  165.5044 F       1  UNL1       -0.2042
     32 C         143.4290  138.5780  166.2340 C.ar    1  UNL1        0.0309
     33 C         142.0150  138.9820  165.9383 C.ar    1  UNL1        0.0168
@<TRIPOS>BOND
     1     4     5    1
     2     5     6   ar
     3     6     3    1
     4     3     2    1
     5     2     1    1
     6     1    18    1
     7    18    19    1
     8    19    20    1
     9    20    21    1
    10    21    22    1
    11    22    23    1
    12    23    24    1
    13    24    27    1
    14    27    28   ar
    15    28    29   ar
    16    29    30   ar
    17    30    31    1
    18    30    32   ar
    19    32    33   ar
    20    24    25    1
    21    25    26    1
    22     6     7   ar
    23     7     8   ar
    24     8     9   ar
    25     9    10    1
    26    10    11   ar
    27    11    12   ar
    28    12    13   ar
    29    13    14    1
    30    13    15   ar
    31    15    16    2
    32    15    17   ar
    33     9     5   ar
    34    17    10   ar
    35    26    19    1
    36    25    21    1
    37    33    27   ar
@<TRIPOS>MOLECULE
*****
 33 37 0 0 0
SMALL
GASTEIGER

@<TRIPOS>ATOM
      1 C         143.6929  138.1461  161.2684 C.3     1  UNL1        0.0294
      2 C         143.2362  138.2735  162.6915 C.3     1  UNL1        0.0666
      3 S         144.0449  139.0724  163.6701 S.3     1  UNL1       -0.0756
      4 C         142.1793  141.4110  164.9740 C.3     1  UNL1        0.1340
      5 N         142.7568  140.2344  165.7036 N.ar    1  UNL1       -0.2884
      6 C         143.6143  139.1595  165.1043 C.ar    1  UNL1        0.1932
      7 N         143.9656  138.1870  166.1909 N.ar    1  UNL1       -0.1221
      8 N         143.3252  138.6609  167.4619 N.ar    1  UNL1       -0.1282
      9 C         142.5781  139.9263  167.1608 C.ar    1  UNL1        0.1670
     10 C         141.7906  140.7405  168.1441 C.ar    1  UNL1        0.0422
     11 C         142.2821  142.0953  168.5600 C.ar    1  UNL1        0.0219
     12 C         141.4946  142.9095  169.5434 C.ar    1  UNL1        0.0785
     13 N         140.2156  142.3688  170.1107 N.ar    1  UNL1       -0.2922
     14 C         139.4281  143.1830  171.0941 C.3     1  UNL1        0.1336
     15 C         139.7241  141.0140  169.6948 C.ar    1  UNL1        0.2611
     16 O         138.4451  140.4735  170.2623 O.2     1  UNL1       -0.2670
     17 C         140.5117  140.1999  168.7115 C.ar    1  UNL1        0.0638
     18 C         143.6560  139.3386  160.3591 C.3     1  UNL1        0.0731
     19 N         142.3927  140.1347  160.2173 N.3     1  UNL1       -0.2712
     20 C         141.5180  140.1912  159.0000 C.3     1  UNL1        0.0738
     21 C         140.3670  141.1056  159.2983 C.3     1  UNL1        0.0372
     22 C         139.1151  141.7056  158.7304 C.3     1  UNL1        0.0245
     23 C         138.5045  142.5852  159.7810 C.3     1  UNL1        0.0909
     24 N         139.3792  142.5287  160.9983 N.pl3   1  UNL1       -0.3077
     25 C         140.5303  141.6143  160.7000 C.3     1  UNL1        0.0901
     26 C         141.7822  141.0143  161.2679 C.3     1  UNL1        0.0921
     27 C         139.1441  143.2585  162.2875 C.ar    1  UNL1        0.0480
     28 C         137.8013  143.1927  162.9525 C.ar    1  UNL1        0.0168
     29 C         137.5662  143.9225  164.2417 C.ar    1  UNL1        0.0309
     30 C         138.6739  144.7182  164.8659 C.ar    1  UNL1        0.1402
     31 F         138.4388  145.4480  166.1552 F       1  UNL1       -0.2042
     32 C         140.0169  144.7840  164.2009 C.ar    1  UNL1        0.0309
     33 C         140.2520  144.0542  162.9117 C.ar    1  UNL1        0.0168
@<TRIPOS>BOND
     1     4     5    1
     2     5     6   ar
     3     6     3    1
     4     3     2    1
     5     2     1    1
     6     1    18    1
     7    18    19    1
     8    19    20    1
     9    20    21    1
    10    21    22    1
    11    22    23    1
    12    23    24    1
    13    24    27    1
    14    27    28   ar
    15    28    29   ar
    16    29    30   ar
    17    30    31    1
    18    30    32   ar
    19    32    33   ar
    20    24    25    1
    21    25    26    1
    22     6     7   ar
    23     7     8   ar
    24     8     9   ar
    25     9    10    1
    26    10    11   ar
    27    11    12   ar
    28    12    13   ar
    29    13    14    1
    30    13    15   ar
    31    15    16    2
    32    15    17   ar
    33     9     5   ar
    34    17    10   ar
    35    26    19    1
    36    25    21    1
    37    33    27   ar
@<TRIPOS>MOLECULE
*****
 33 37 0 0 0
SMALL
GASTEIGER

@<TRIPOS>ATOM
      1 C         140.9407  145.0507  160.1926 C.3     1  UNL1        0.0294
      2 C         141.7990  144.7295  161.3802 C.3     1  UNL1        0.0666
      3 S         141.3022  145.0204  162.7653 S.3     1  UNL1       -0.0756
      4 C         139.4096  143.8189  165.1368 C.3     1  UNL1        0.1340
      5 N         140.8917  143.6267  165.0089 N.ar    1  UNL1       -0.2884
      6 C         141.7617  144.1789  163.9189 C.ar    1  UNL1        0.1932
      7 N         143.1718  143.7420  164.1849 N.ar    1  UNL1       -0.1221
      8 N         143.1733  142.9197  165.4395 N.ar    1  UNL1       -0.1282
      9 C         141.7642  142.8484  165.9488 C.ar    1  UNL1        0.1670
     10 C         141.3078  142.1257  167.1814 C.ar    1  UNL1        0.0422
     11 C         141.2605  140.6266  167.1977 C.ar    1  UNL1        0.0219
     12 C         140.8040  139.9039  168.4303 C.ar    1  UNL1        0.0785
     13 N         140.3948  140.6805  169.6467 N.ar    1  UNL1       -0.2922
     14 C         139.9383  139.9579  170.8794 C.3     1  UNL1        0.1336
     15 C         140.4421  142.1797  169.6305 C.ar    1  UNL1        0.2611
     16 O         140.0329  142.9562  170.8468 O.2     1  UNL1       -0.2670
     17 C         140.8986  142.9023  168.3978 C.ar    1  UNL1        0.0638
     18 C         139.9641  144.0359  159.6766 C.3     1  UNL1        0.0731
     19 N         140.1056  142.5939  160.0644 N.3     1  UNL1       -0.2712
     20 C         140.7376  141.5157  159.2349 C.3     1  UNL1        0.0738
     21 C         140.6626  140.2323  160.0077 C.3     1  UNL1        0.0372
     22 C         141.0068  138.7728  159.9726 C.3     1  UNL1        0.0245
     23 C         140.5412  138.1556  161.2581 C.3     1  UNL1        0.0909
     24 N         139.9092  139.2339  162.0876 N.pl3   1  UNL1       -0.3077
     25 C         139.9842  140.5173  161.3148 C.3     1  UNL1        0.0901
     26 C         139.6400  141.9768  161.3499 C.3     1  UNL1        0.0921
     27 C         139.3078  139.0593  163.4507 C.ar    1  UNL1        0.0480
     28 C         139.2981  137.7065  164.0985 C.ar    1  UNL1        0.0168
     29 C         138.6967  137.5319  165.4615 C.ar    1  UNL1        0.0309
     30 C         138.1050  138.7101  166.1767 C.ar    1  UNL1        0.1402
     31 F         137.5035  138.5355  167.5397 F       1  UNL1       -0.2042
     32 C         138.1146  140.0630  165.5289 C.ar    1  UNL1        0.0309
     33 C         138.7160  140.2376  164.1658 C.ar    1  UNL1        0.0168
@<TRIPOS>BOND
     1     4     5    1
     2     5     6   ar
     3     6     3    1
     4     3     2    1
     5     2     1    1
     6     1    18    1
     7    18    19    1
     8    19    20    1
     9    20    21    1
    10    21    22    1
    11    22    23    1
    12    23    24    1
    13    24    27    1
    14    27    28   ar
    15    28    29   ar
    16    29    30   ar
    17    30    31    1
    18    30    32   ar
    19    32    33   ar
    20    24    25    1
    21    25    26    1
    22     6     7   ar
    23     7     8   ar
    24     8     9   ar
    25     9    10    1
    26    10    11   ar
    27    11    12   ar
    28    12    13   ar
    29    13    14    1
    30    13    15   ar
    31    15    16    2
    32    15    17   ar
    33     9     5   ar
    34    17    10   ar
    35    26    19    1
    36    25    21    1
    37    33    27   ar
@<TRIPOS>MOLECULE
*****
 33 37 0 0 0
SMALL
GASTEIGER

@<TRIPOS>ATOM
      1 C         143.1267  142.9664  159.2919 C.3     1  UNL1        0.0294
      2 C         143.0169  141.5099  158.9502 C.3     1  UNL1        0.0666
      3 S         143.7670  140.4917  159.7568 S.3     1  UNL1       -0.0756
      4 C         142.1272  139.3116  162.3195 C.3     1  UNL1        0.1340
      5 N         143.3226  140.2158  162.3781 N.ar    1  UNL1       -0.2884
      6 C         144.0764  140.7582  161.2001 C.ar    1  UNL1        0.1932
      7 N         145.1938  141.6139  161.7189 N.ar    1  UNL1       -0.1221
      8 N         145.1307  141.6004  163.2175 N.ar    1  UNL1       -0.1282
      9 C         143.9742  140.7363  163.6250 C.ar    1  UNL1        0.1670
     10 C         143.5448  140.4440  165.0322 C.ar    1  UNL1        0.0422
     11 C         143.5329  139.0306  165.5344 C.ar    1  UNL1        0.0219
     12 C         143.1034  138.7384  166.9416 C.ar    1  UNL1        0.0785
     13 N         142.6859  139.8595  167.8465 N.ar    1  UNL1       -0.2922
     14 C         142.2565  139.5673  169.2537 C.3     1  UNL1        0.1336
     15 C         142.6978  141.2729  167.3442 C.ar    1  UNL1        0.2611
     16 O         142.2803  142.3940  168.2491 O.2     1  UNL1       -0.2670
     17 C         143.1273  141.5651  165.9370 C.ar    1  UNL1        0.0638
     18 C         141.8861  143.7859  159.4901 C.3     1  UNL1        0.0731
     19 N         141.1929  143.7875  160.8204 N.3     1  UNL1       -0.2712
     20 C         140.7966  145.0019  161.6066 C.3     1  UNL1        0.0738
     21 C         140.1331  144.5399  162.8700 C.3     1  UNL1        0.0372
     22 C         139.4780  145.0049  164.1368 C.3     1  UNL1        0.0245
     23 C         139.0595  143.7924  164.9144 C.3     1  UNL1        0.0909
     24 N         139.4559  142.5779  164.1281 N.pl3   1  UNL1       -0.3077
     25 C         140.1194  143.0400  162.8647 C.3     1  UNL1        0.0901
     26 C         140.7744  142.5750  161.5979 C.3     1  UNL1        0.0921
     27 C         139.2287  141.1519  164.5341 C.ar    1  UNL1        0.0480
     28 C         139.4419  140.7347  165.9590 C.ar    1  UNL1        0.0168
     29 C         139.2147  139.3087  166.3650 C.ar    1  UNL1        0.0309
     30 C         138.7742  138.2999  165.3460 C.ar    1  UNL1        0.1402
     31 F         138.5470  136.8738  165.7520 F       1  UNL1       -0.2042
     32 C         138.5610  138.7171  163.9210 C.ar    1  UNL1        0.0309
     33 C         138.7882  140.1431  163.5150 C.ar    1  UNL1        0.0168
@<TRIPOS>BOND
     1     4     5    1
     2     5     6   ar
     3     6     3    1
     4     3     2    1
     5     2     1    1
     6     1    18    1
     7    18    19    1
     8    19    20    1
     9    20    21    1
    10    21    22    1
    11    22    23    1
    12    23    24    1
    13    24    27    1
    14    27    28   ar
    15    28    29   ar
    16    29    30   ar
    17    30    31    1
    18    30    32   ar
    19    32    33   ar
    20    24    25    1
    21    25    26    1
    22     6     7   ar
    23     7     8   ar
    24     8     9   ar
    25     9    10    1
    26    10    11   ar
    27    11    12   ar
    28    12    13   ar
    29    13    14    1
    30    13    15   ar
    31    15    16    2
    32    15    17   ar
    33     9     5   ar
    34    17    10   ar
    35    26    19    1
    36    25    21    1
    37    33    27   ar
@<TRIPOS>MOLECULE
*****
 33 37 0 0 0
SMALL
GASTEIGER

@<TRIPOS>ATOM
      1 C         143.6794  139.7571  158.9696 C.3     1  UNL1        0.0294
      2 C         143.9729  139.0459  160.2573 C.3     1  UNL1        0.0666
      3 S         144.3024  139.8333  161.4908 S.3     1  UNL1       -0.0756
      4 C         144.8032  141.3344  164.3448 C.3     1  UNL1        0.1340
      5 N         143.7435  140.3115  164.0606 N.ar    1  UNL1       -0.2884
      6 C         143.5133  139.6215  162.7488 C.ar    1  UNL1        0.1932
      7 N         142.3555  138.6825  162.9157 N.ar    1  UNL1       -0.1221
      8 N         141.8701  138.7922  164.3308 N.ar    1  UNL1       -0.1282
      9 C         142.7279  139.7989  165.0384 C.ar    1  UNL1        0.1670
     10 C         142.5937  140.2193  166.4720 C.ar    1  UNL1        0.0422
     11 C         142.2840  141.6478  166.8089 C.ar    1  UNL1        0.0219
     12 C         142.1498  142.0682  168.2425 C.ar    1  UNL1        0.0785
     13 N         142.3253  141.0600  169.3392 N.ar    1  UNL1       -0.2922
     14 C         142.1911  141.4804  170.7729 C.3     1  UNL1        0.1336
     15 C         142.6350  139.6315  169.0024 C.ar    1  UNL1        0.2611
     16 O         142.8105  138.6234  170.0992 O.2     1  UNL1       -0.2670
     17 C         142.7692  139.2112  167.5687 C.ar    1  UNL1        0.0638
     18 C         142.2591  140.0139  158.5614 C.3     1  UNL1        0.0731
     19 N         141.1517  139.8598  159.5613 N.3     1  UNL1       -0.2712
     20 C         140.2486  138.6702  159.7004 C.3     1  UNL1        0.0738
     21 C         139.2918  138.9435  160.8229 C.3     1  UNL1        0.0372
     22 C         138.1422  138.3772  161.6025 C.3     1  UNL1        0.0245
     23 C         137.7436  139.3856  162.6390 C.3     1  UNL1        0.0909
     24 N         138.6468  140.5752  162.4999 N.pl3   1  UNL1       -0.3077
     25 C         139.6036  140.3019  161.3775 C.3     1  UNL1        0.0901
     26 C         140.7531  140.8682  160.5978 C.3     1  UNL1        0.0921
     27 C         138.6011  141.8194  163.3364 C.ar    1  UNL1        0.0480
     28 C         139.3568  141.8812  164.6306 C.ar    1  UNL1        0.0168
     29 C         139.3111  143.1255  165.4671 C.ar    1  UNL1        0.0309
     30 C         138.5099  144.3080  165.0093 C.ar    1  UNL1        0.1402
     31 F         138.4642  145.5523  165.8457 F       1  UNL1       -0.2042
     32 C         137.7542  144.2463  163.7149 C.ar    1  UNL1        0.0309
     33 C         137.7998  143.0020  162.8785 C.ar    1  UNL1        0.0168
@<TRIPOS>BOND
     1     4     5    1
     2     5     6   ar
     3     6     3    1
     4     3     2    1
     5     2     1    1
     6     1    18    1
     7    18    19    1
     8    19    20    1
     9    20    21    1
    10    21    22    1
    11    22    23    1
    12    23    24    1
    13    24    27    1
    14    27    28   ar
    15    28    29   ar
    16    29    30   ar
    17    30    31    1
    18    30    32   ar
    19    32    33   ar
    20    24    25    1
    21    25    26    1
    22     6     7   ar
    23     7     8   ar
    24     8     9   ar
    25     9    10    1
    26    10    11   ar
    27    11    12   ar
    28    12    13   ar
    29    13    14    1
    30    13    15   ar
    31    15    16    2
    32    15    17   ar
    33     9     5   ar
    34    17    10   ar
    35    26    19    1
    36    25    21    1
    37    33    27   ar
