@<TRIPOS>MOLECULE
*****
 34 38 0 0 0
SMALL
GASTEIGER

@<TRIPOS>ATOM
      1 N         140.3105  138.5541  162.5303 N.am    1  UNL1       -0.2495
      2 C         139.1326  137.8780  163.1671 C.3     1  UNL1        0.1267
      3 C         139.0376  138.3522  164.5870 C.ar    1  UNL1        0.0202
      4 C         138.0766  138.0267  165.6917 C.ar    1  UNL1        0.0011
      5 C         138.2348  138.6704  167.0372 C.ar    1  UNL1        0.0255
      6 C         139.3540  139.6396  167.2781 C.ar    1  UNL1        0.1108
      7 N         140.3151  139.9651  166.1733 N.ar    1  UNL1       -0.2345
      8 C         140.1568  139.3214  164.8278 C.ar    1  UNL1        0.1332
      9 C         140.9435  139.4462  163.5567 C.2     1  UNL1        0.2705
     10 O         142.1512  140.3112  163.3486 O.2     1  UNL1       -0.2679
     11 C         140.2693  138.3509  158.5671 C.ar    1  UNL1        0.1736
     12 C         139.8058  138.5346  159.9818 C.ar    1  UNL1        0.0549
     13 C         140.7740  138.3703  161.1156 C.ar    1  UNL1        0.0577
     14 C         142.2058  138.0223  160.8347 C.ar    1  UNL1        0.0182
     15 C         142.6693  137.8386  159.4200 C.ar    1  UNL1        0.0413
     16 C         141.7011  138.0029  158.2862 C.ar    1  UNL1        0.1724
     17 C         139.1434  139.8509  156.7692 C.3     1  UNL1        0.2526
     18 O         139.3010  138.5152  157.4333 O.3     1  UNL1       -0.4683
     19 O         142.1646  137.8191  156.8715 O.3     1  UNL1       -0.4709
     20 C         143.0394  136.6542  156.5142 C.3     1  UNL1        0.2228
     21 C         142.4842  135.2612  156.5479 C.3     1  UNL1        0.1200
     22 N         143.4042  134.0915  156.7366 N.3     1  UNL1       -0.2696
     23 C         143.8142  133.1123  155.6769 C.3     1  UNL1        0.0722
     24 C         144.7391  132.1113  156.3035 C.3     1  UNL1        0.0188
     25 C         144.9007  132.4720  157.7506 C.3     1  UNL1        0.0188
     26 C         144.0757  133.6958  158.0182 C.3     1  UNL1        0.0722
     27 S         139.5122  140.2834  168.6237 S.3     1  UNL1       -0.0680
     28 C         140.8444  140.8326  169.0404 C.ar    1  UNL1        0.0310
     29 C         141.8544  139.9359  169.6929 C.ar    1  UNL1        0.0088
     30 C         143.1866  140.4852  170.1097 C.ar    1  UNL1        0.0301
     31 C         143.5087  141.9311  169.8739 C.ar    1  UNL1        0.1402
     32 F         144.8409  142.4803  170.2907 F       1  UNL1       -0.2042
     33 C         142.4987  142.8277  169.2214 C.ar    1  UNL1        0.0301
     34 C         141.1665  142.2785  168.8047 C.ar    1  UNL1        0.0088
@<TRIPOS>BOND
     1    17    18    1
     2    18    11    1
     3    11    12   ar
     4    12    13   ar
     5    13     1    1
     6     1     2    1
     7     2     3    1
     8     3     4   ar
     9     4     5   ar
    10     5     6   ar
    11     6    27    1
    12    27    28    1
    13    28    29   ar
    14    29    30   ar
    15    30    31   ar
    16    31    32    1
    17    31    33   ar
    18    33    34   ar
    19     6     7   ar
    20     7     8   ar
    21     8     9    1
    22     9    10    2
    23    13    14   ar
    24    14    15   ar
    25    15    16   ar
    26    16    19    1
    27    19    20    1
    28    20    21    1
    29    21    22    1
    30    22    23    1
    31    23    24    1
    32    24    25    1
    33    25    26    1
    34    16    11   ar
    35    26    22    1
    36     9     1   am
    37     8     3   ar
    38    34    28   ar
@<TRIPOS>MOLECULE
*****
 34 38 0 0 0
SMALL
GASTEIGER

@<TRIPOS>ATOM
      1 N         140.7329  139.2391  161.2191 N.am    1  UNL1       -0.2495
      2 C         140.3584  140.6626  161.5077 C.3     1  UNL1        0.1267
      3 C         140.2226  140.8141  162.9939 C.ar    1  UNL1        0.0202
      4 C         139.8719  141.9912  163.8549 C.ar    1  UNL1        0.0011
      5 C         139.8119  141.8384  165.3458 C.ar    1  UNL1        0.0255
      6 C         140.1025  140.5084  165.9758 C.ar    1  UNL1        0.1108
      7 N         140.4532  139.3313  165.1148 N.ar    1  UNL1       -0.2345
      8 C         140.5133  139.4842  163.6238 C.ar    1  UNL1        0.1332
      9 C         140.8286  138.5108  162.5270 C.2     1  UNL1        0.2705
     10 O         141.1783  137.0632  162.7065 O.2     1  UNL1       -0.2679
     11 C         140.0841  137.9798  157.5119 C.ar    1  UNL1        0.1736
     12 C         139.8470  138.5712  158.8699 C.ar    1  UNL1        0.0549
     13 C         140.9701  138.6477  159.8612 C.ar    1  UNL1        0.0577
     14 C         142.3304  138.1328  159.4945 C.ar    1  UNL1        0.0182
     15 C         142.5675  137.5414  158.1366 C.ar    1  UNL1        0.0413
     16 C         141.4444  137.4649  157.1453 C.ar    1  UNL1        0.1724
     17 C         138.8403  138.9393  155.4426 C.3     1  UNL1        0.2526
     18 O         138.9609  137.9034  156.5206 O.3     1  UNL1       -0.4683
     19 O         141.6816  136.8736  155.7873 O.3     1  UNL1       -0.4709
     20 C         141.6396  135.3860  155.5994 C.3     1  UNL1        0.2228
     21 C         142.8379  134.6644  155.0577 C.3     1  UNL1        0.1200
     22 N         143.5685  133.6744  155.9158 N.3     1  UNL1       -0.2696
     23 C         143.9879  133.8832  157.3407 C.3     1  UNL1        0.0722
     24 C         144.6866  132.6397  157.8051 C.3     1  UNL1        0.0188
     25 C         144.6990  131.6625  156.6672 C.3     1  UNL1        0.0188
     26 C         144.0080  132.3020  155.4995 C.3     1  UNL1        0.0722
     27 S         140.0424  140.3557  167.4668 S.3     1  UNL1       -0.0680
     28 C         140.9073  141.2115  168.3439 C.ar    1  UNL1        0.0310
     29 C         142.3269  140.8113  168.6172 C.ar    1  UNL1        0.0088
     30 C         143.1918  141.6673  169.4944 C.ar    1  UNL1        0.0301
     31 C         142.6372  142.9234  170.0981 C.ar    1  UNL1        0.1402
     32 F         143.5021  143.7793  170.9752 F       1  UNL1       -0.2042
     33 C         141.2176  143.3236  169.8248 C.ar    1  UNL1        0.0301
     34 C         140.3527  142.4677  168.9477 C.ar    1  UNL1        0.0088
@<TRIPOS>BOND
     1    17    18    1
     2    18    11    1
     3    11    12   ar
     4    12    13   ar
     5    13     1    1
     6     1     2    1
     7     2     3    1
     8     3     4   ar
     9     4     5   ar
    10     5     6   ar
    11     6    27    1
    12    27    28    1
    13    28    29   ar
    14    29    30   ar
    15    30    31   ar
    16    31    32    1
    17    31    33   ar
    18    33    34   ar
    19     6     7   ar
    20     7     8   ar
    21     8     9    1
    22     9    10    2
    23    13    14   ar
    24    14    15   ar
    25    15    16   ar
    26    16    19    1
    27    19    20    1
    28    20    21    1
    29    21    22    1
    30    22    23    1
    31    23    24    1
    32    24    25    1
    33    25    26    1
    34    16    11   ar
    35    26    22    1
    36     9     1   am
    37     8     3   ar
    38    34    28   ar
@<TRIPOS>MOLECULE
*****
 34 38 0 0 0
SMALL
GASTEIGER

@<TRIPOS>ATOM
      1 N         141.6929  144.3776  160.3526 N.am    1  UNL1       -0.2495
      2 C         142.4187  144.0696  159.0766 C.3     1  UNL1        0.1267
      3 C         141.7048  144.7676  157.9571 C.ar    1  UNL1        0.0202
      4 C         141.9666  144.8255  156.4813 C.ar    1  UNL1        0.0011
      5 C         141.0614  145.6227  155.5897 C.ar    1  UNL1        0.0255
      6 C         139.8944  146.3621  156.1739 C.ar    1  UNL1        0.1108
      7 N         139.6325  146.3042  157.6497 N.ar    1  UNL1       -0.2345
      8 C         140.5377  145.5070  158.5413 C.ar    1  UNL1        0.1332
      9 C         140.5304  145.2660  160.0218 C.2     1  UNL1        0.2705
     10 O         139.5352  145.8166  160.9998 O.2     1  UNL1       -0.2679
     11 C         142.3189  141.9312  163.4142 C.ar    1  UNL1        0.1736
     12 C         141.9475  142.4249  162.0473 C.ar    1  UNL1        0.0549
     13 C         142.0643  143.8839  161.7195 C.ar    1  UNL1        0.0577
     14 C         142.5526  144.8493  162.7585 C.ar    1  UNL1        0.0182
     15 C         142.9241  144.3556  164.1254 C.ar    1  UNL1        0.0413
     16 C         142.8073  142.8966  164.4532 C.ar    1  UNL1        0.1724
     17 C         141.2248  139.6120  162.9970 C.3     1  UNL1        0.2526
     18 O         142.2021  140.4721  163.7420 O.3     1  UNL1       -0.4683
     19 O         143.1787  142.4029  165.8200 O.3     1  UNL1       -0.4709
     20 C         142.1209  142.2364  166.8704 C.3     1  UNL1        0.2228
     21 C         140.7107  142.6630  166.5889 C.3     1  UNL1        0.1200
     22 N         139.7283  141.6800  166.0243 N.3     1  UNL1       -0.2696
     23 C         139.4629  140.2994  166.5472 C.3     1  UNL1        0.0722
     24 C         138.4095  139.6713  165.6838 C.3     1  UNL1        0.0188
     25 C         138.0237  140.6637  164.6271 C.3     1  UNL1        0.0188
     26 C         138.8388  141.9052  164.8377 C.3     1  UNL1        0.0722
     27 S         138.9891  147.1593  155.2822 S.3     1  UNL1       -0.0680
     28 C         139.2562  148.6174  155.0531 C.ar    1  UNL1        0.0310
     29 C         138.5056  149.6502  155.8404 C.ar    1  UNL1        0.0088
     30 C         138.7727  151.1084  155.6112 C.ar    1  UNL1        0.0301
     31 C         139.7904  151.5337  154.5947 C.ar    1  UNL1        0.1402
     32 F         140.0575  152.9918  154.3656 F       1  UNL1       -0.2042
     33 C         140.5410  150.5009  153.8074 C.ar    1  UNL1        0.0301
     34 C         140.2739  149.0428  154.0365 C.ar    1  UNL1        0.0088
@<TRIPOS>BOND
     1    17    18    1
     2    18    11    1
     3    11    12   ar
     4    12    13   ar
     5    13     1    1
     6     1     2    1
     7     2     3    1
     8     3     4   ar
     9     4     5   ar
    10     5     6   ar
    11     6    27    1
    12    27    28    1
    13    28    29   ar
    14    29    30   ar
    15    30    31   ar
    16    31    32    1
    17    31    33   ar
    18    33    34   ar
    19     6     7   ar
    20     7     8   ar
    21     8     9    1
    22     9    10    2
    23    13    14   ar
    24    14    15   ar
    25    15    16   ar
    26    16    19    1
    27    19    20    1
    28    20    21    1
    29    21    22    1
    30    22    23    1
    31    23    24    1
    32    24    25    1
    33    25    26    1
    34    16    11   ar
    35    26    22    1
    36     9     1   am
    37     8     3   ar
    38    34    28   ar
@<TRIPOS>MOLECULE
*****
 34 38 0 0 0
SMALL
GASTEIGER

@<TRIPOS>ATOM
      1 N         142.0823  139.1177  161.7304 N.am    1  UNL1       -0.2495
      2 C         140.8808  139.3672  160.8677 C.3     1  UNL1        0.1267
      3 C         141.0963  138.6668  159.5589 C.ar    1  UNL1        0.0202
      4 C         140.2496  138.5623  158.3252 C.ar    1  UNL1        0.0011
      5 C         140.7377  137.7754  157.1451 C.ar    1  UNL1        0.0255
      6 C         142.0723  137.0929  157.1989 C.ar    1  UNL1        0.1108
      7 N         142.9190  137.1974  158.4326 N.ar    1  UNL1       -0.2345
      8 C         142.4310  137.9844  159.6126 C.ar    1  UNL1        0.1332
      9 C         143.0403  138.2630  160.9547 C.2     1  UNL1        0.2705
     10 O         144.3737  137.7730  161.4364 O.2     1  UNL1       -0.2679
     11 C         142.6545  141.6192  164.7577 C.ar    1  UNL1        0.1736
     12 C         142.4474  141.1045  163.3641 C.ar    1  UNL1        0.0549
     13 C         142.2894  139.6324  163.1240 C.ar    1  UNL1        0.0577
     14 C         142.3384  138.6749  164.2776 C.ar    1  UNL1        0.0182
     15 C         142.5455  139.1896  165.6712 C.ar    1  UNL1        0.0413
     16 C         142.7035  140.6618  165.9113 C.ar    1  UNL1        0.1724
     17 C         141.8521  144.0604  164.3743 C.3     1  UNL1        0.2526
     18 O         142.8126  143.0915  164.9977 O.3     1  UNL1       -0.4683
     19 O         142.9106  141.1765  167.3049 O.3     1  UNL1       -0.4709
     20 C         141.7321  141.3932  168.2072 C.3     1  UNL1        0.2228
     21 C         140.4241  141.8533  167.6351 C.3     1  UNL1        0.1200
     22 N         139.5719  140.9002  166.8505 N.3     1  UNL1       -0.2696
     23 C         139.0713  141.1111  165.4524 C.3     1  UNL1        0.0722
     24 C         138.2608  139.9102  165.0641 C.3     1  UNL1        0.0188
     25 C         138.2605  138.9569  166.2224 C.3     1  UNL1        0.0188
     26 C         139.0709  139.5688  167.3264 C.3     1  UNL1        0.0722
     27 S         142.5603  136.3059  156.0188 S.3     1  UNL1       -0.0680
     28 C         142.4460  134.8103  156.0155 C.ar    1  UNL1        0.0310
     29 C         143.3646  133.9861  156.8680 C.ar    1  UNL1        0.0088
     30 C         143.2502  132.4904  156.8647 C.ar    1  UNL1        0.0301
     31 C         142.2173  131.8191  156.0090 C.ar    1  UNL1        0.1402
     32 F         142.1029  130.3235  156.0058 F       1  UNL1       -0.2042
     33 C         141.2987  132.6433  155.1565 C.ar    1  UNL1        0.0301
     34 C         141.4130  134.1389  155.1598 C.ar    1  UNL1        0.0088
@<TRIPOS>BOND
     1    17    18    1
     2    18    11    1
     3    11    12   ar
     4    12    13   ar
     5    13     1    1
     6     1     2    1
     7     2     3    1
     8     3     4   ar
     9     4     5   ar
    10     5     6   ar
    11     6    27    1
    12    27    28    1
    13    28    29   ar
    14    29    30   ar
    15    30    31   ar
    16    31    32    1
    17    31    33   ar
    18    33    34   ar
    19     6     7   ar
    20     7     8   ar
    21     8     9    1
    22     9    10    2
    23    13    14   ar
    24    14    15   ar
    25    15    16   ar
    26    16    19    1
    27    19    20    1
    28    20    21    1
    29    21    22    1
    30    22    23    1
    31    23    24    1
    32    24    25    1
    33    25    26    1
    34    16    11   ar
    35    26    22    1
    36     9     1   am
    37     8     3   ar
    38    34    28   ar
@<TRIPOS>MOLECULE
*****
 34 38 0 0 0
SMALL
GASTEIGER

@<TRIPOS>ATOM
      1 N         140.1766  144.1842  160.6773 N.am    1  UNL1       -0.2495
      2 C         139.6040  145.1291  161.6919 C.3     1  UNL1        0.1267
      3 C         139.6630  144.4604  163.0333 C.ar    1  UNL1        0.0202
      4 C         139.2409  144.9127  164.3997 C.ar    1  UNL1        0.0011
      5 C         139.4278  144.0069  165.5806 C.ar    1  UNL1        0.0255
      6 C         140.0369  142.6488  165.3951 C.ar    1  UNL1        0.1108
      7 N         140.4591  142.1965  164.0286 N.ar    1  UNL1       -0.2345
      8 C         140.2721  143.1023  162.8478 C.ar    1  UNL1        0.1332
      9 C         140.5895  142.9316  161.3917 C.2     1  UNL1        0.2705
     10 O         141.2108  141.7208  160.7608 O.2     1  UNL1       -0.2679
     11 C         139.5812  143.9696  156.7595 C.ar    1  UNL1        0.1736
     12 C         139.4454  143.7078  158.2302 C.ar    1  UNL1        0.0549
     13 C         140.3124  144.4460  159.2066 C.ar    1  UNL1        0.0577
     14 C         141.3151  145.4461  158.7123 C.ar    1  UNL1        0.0182
     15 C         141.4509  145.7079  157.2415 C.ar    1  UNL1        0.0413
     16 C         140.5840  144.9697  156.2651 C.ar    1  UNL1        0.1724
     17 C         137.2600  143.5777  155.6602 C.3     1  UNL1        0.2526
     18 O         138.7143  143.2313  155.7830 O.3     1  UNL1       -0.4683
     19 O         140.7198  145.2315  154.7944 O.3     1  UNL1       -0.4709
     20 C         139.8604  146.2690  154.1348 C.3     1  UNL1        0.2228
     21 C         140.2773  147.7098  154.1524 C.3     1  UNL1        0.1200
     22 N         139.5184  148.6999  154.9855 N.3     1  UNL1       -0.2696
     23 C         138.8583  148.4211  156.3032 C.3     1  UNL1        0.0722
     24 C         138.2185  149.6916  156.7791 C.3     1  UNL1        0.0188
     25 C         138.4832  150.7557  155.7554 C.3     1  UNL1        0.0188
     26 C         139.2866  150.1427  154.6469 C.3     1  UNL1        0.0722
     27 S         140.2239  141.7430  166.5760 S.3     1  UNL1       -0.0680
     28 C         141.0287  142.2040  167.7548 C.ar    1  UNL1        0.0310
     29 C         142.4822  141.8476  167.8561 C.ar    1  UNL1        0.0088
     30 C         143.2871  142.3086  169.0350 C.ar    1  UNL1        0.0301
     31 C         142.6384  143.1260  170.1125 C.ar    1  UNL1        0.1402
     32 F         143.4433  143.5870  171.2914 F       1  UNL1       -0.2042
     33 C         141.1849  143.4824  170.0112 C.ar    1  UNL1        0.0301
     34 C         140.3801  143.0214  168.8324 C.ar    1  UNL1        0.0088
@<TRIPOS>BOND
     1    17    18    1
     2    18    11    1
     3    11    12   ar
     4    12    13   ar
     5    13     1    1
     6     1     2    1
     7     2     3    1
     8     3     4   ar
     9     4     5   ar
    10     5     6   ar
    11     6    27    1
    12    27    28    1
    13    28    29   ar
    14    29    30   ar
    15    30    31   ar
    16    31    32    1
    17    31    33   ar
    18    33    34   ar
    19     6     7   ar
    20     7     8   ar
    21     8     9    1
    22     9    10    2
    23    13    14   ar
    24    14    15   ar
    25    15    16   ar
    26    16    19    1
    27    19    20    1
    28    20    21    1
    29    21    22    1
    30    22    23    1
    31    23    24    1
    32    24    25    1
    33    25    26    1
    34    16    11   ar
    35    26    22    1
    36     9     1   am
    37     8     3   ar
    38    34    28   ar
@<TRIPOS>MOLECULE
*****
 34 38 0 0 0
SMALL
GASTEIGER

@<TRIPOS>ATOM
      1 N         141.5092  144.5193  160.3579 N.am    1  UNL1       -0.2495
      2 C         142.2805  144.2036  159.1108 C.3     1  UNL1        0.1267
      3 C         141.6123  144.9012  157.9633 C.ar    1  UNL1        0.0202
      4 C         141.9293  144.9529  156.4981 C.ar    1  UNL1        0.0011
      5 C         141.0619  145.7514  155.5709 C.ar    1  UNL1        0.0255
      6 C         139.8775  146.4983  156.1088 C.ar    1  UNL1        0.1108
      7 N         139.5605  146.4467  157.5739 N.ar    1  UNL1       -0.2345
      8 C         140.4279  145.6481  158.5012 C.ar    1  UNL1        0.1332
      9 C         140.3642  145.4120  159.9812 C.2     1  UNL1        0.2705
     10 O         139.3359  145.9707  160.9196 O.2     1  UNL1       -0.2679
     11 C         141.2088  142.5930  163.8147 C.ar    1  UNL1        0.1736
     12 C         140.8910  143.0839  162.4333 C.ar    1  UNL1        0.0549
     13 C         141.8269  144.0284  161.7393 C.ar    1  UNL1        0.0577
     14 C         143.0807  144.4821  162.4265 C.ar    1  UNL1        0.0182
     15 C         143.3984  143.9912  163.8078 C.ar    1  UNL1        0.0413
     16 C         142.4625  143.0466  164.5019 C.ar    1  UNL1        0.1724
     17 C         139.4101  140.7214  163.7048 C.3     1  UNL1        0.2526
     18 O         140.2728  141.6484  164.5088 O.3     1  UNL1       -0.4683
     19 O         142.7803  142.5558  165.8832 O.3     1  UNL1       -0.4709
     20 C         143.2665  141.1514  166.0868 C.3     1  UNL1        0.2228
     21 C         143.6400  140.3082  164.9038 C.3     1  UNL1        0.1200
     22 N         142.7425  139.1882  164.4677 N.3     1  UNL1       -0.2696
     23 C         142.5164  138.7387  163.0546 C.3     1  UNL1        0.0722
     24 C         141.5477  137.5938  163.0818 C.3     1  UNL1        0.0188
     25 C         141.1750  137.3357  164.5117 C.3     1  UNL1        0.0188
     26 C         141.9135  138.3211  165.3682 C.3     1  UNL1        0.0722
     27 S         139.0101  147.2969  155.1814 S.3     1  UNL1       -0.0680
     28 C         139.2907  148.7537  154.9602 C.ar    1  UNL1        0.0310
     29 C         140.3104  149.1752  153.9441 C.ar    1  UNL1        0.0088
     30 C         140.5910  150.6321  153.7229 C.ar    1  UNL1        0.0301
     31 C         139.8520  151.6673  154.5179 C.ar    1  UNL1        0.1402
     32 F         140.1326  153.1241  154.2967 F       1  UNL1       -0.2042
     33 C         138.8323  151.2458  155.5340 C.ar    1  UNL1        0.0301
     34 C         138.5517  149.7890  155.7552 C.ar    1  UNL1        0.0088
@<TRIPOS>BOND
     1    17    18    1
     2    18    11    1
     3    11    12   ar
     4    12    13   ar
     5    13     1    1
     6     1     2    1
     7     2     3    1
     8     3     4   ar
     9     4     5   ar
    10     5     6   ar
    11     6    27    1
    12    27    28    1
    13    28    29   ar
    14    29    30   ar
    15    30    31   ar
    16    31    32    1
    17    31    33   ar
    18    33    34   ar
    19     6     7   ar
    20     7     8   ar
    21     8     9    1
    22     9    10    2
    23    13    14   ar
    24    14    15   ar
    25    15    16   ar
    26    16    19    1
    27    19    20    1
    28    20    21    1
    29    21    22    1
    30    22    23    1
    31    23    24    1
    32    24    25    1
    33    25    26    1
    34    16    11   ar
    35    26    22    1
    36     9     1   am
    37     8     3   ar
    38    34    28   ar
@<TRIPOS>MOLECULE
*****
 34 38 0 0 0
SMALL
GASTEIGER

@<TRIPOS>ATOM
      1 N         141.9167  139.3229  161.3442 N.am    1  UNL1       -0.2495
      2 C         142.5817  140.5983  161.7696 C.3     1  UNL1        0.1267
      3 C         142.6468  140.6097  163.2682 C.ar    1  UNL1        0.0202
      4 C         143.1943  141.6111  164.2414 C.ar    1  UNL1        0.0011
      5 C         143.1170  141.3442  165.7154 C.ar    1  UNL1        0.0255
      6 C         142.4923  140.0757  166.2162 C.ar    1  UNL1        0.1108
      7 N         141.9448  139.0743  165.2429 N.ar    1  UNL1       -0.2345
      8 C         142.0221  139.3412  163.7689 C.ar    1  UNL1        0.1332
      9 C         141.5708  138.5460  162.5798 C.2     1  UNL1        0.2705
     10 O         140.8928  137.2086  162.6194 O.2     1  UNL1       -0.2679
     11 C         140.1012  138.8906  157.8417 C.ar    1  UNL1        0.1736
     12 C         140.3727  139.3147  159.2547 C.ar    1  UNL1        0.0549
     13 C         141.6452  138.8988  159.9312 C.ar    1  UNL1        0.0577
     14 C         142.6462  138.0588  159.1948 C.ar    1  UNL1        0.0182
     15 C         142.3747  137.6348  157.7818 C.ar    1  UNL1        0.0413
     16 C         141.1023  138.0507  157.1053 C.ar    1  UNL1        0.1724
     17 C         138.0894  140.5222  157.6402 C.3     1  UNL1        0.2526
     18 O         138.8287  139.3066  157.1652 O.3     1  UNL1       -0.4683
     19 O         140.8308  137.6266  155.6923 O.3     1  UNL1       -0.4709
     20 C         140.2978  136.2531  155.4108 C.3     1  UNL1        0.2228
     21 C         141.1469  135.2539  154.6824 C.3     1  UNL1        0.1200
     22 N         141.7755  134.1162  155.4312 N.3     1  UNL1       -0.2696
     23 C         141.4673  132.6602  155.2441 C.3     1  UNL1        0.0722
     24 C         142.3239  131.8790  156.1959 C.3     1  UNL1        0.0188
     25 C         143.1615  132.8522  156.9713 C.3     1  UNL1        0.0188
     26 C         142.8226  134.2349  156.4987 C.3     1  UNL1        0.0722
     27 S         142.4150  139.8088  167.6903 S.3     1  UNL1       -0.0680
     28 C         141.5959  140.7035  168.5726 C.ar    1  UNL1        0.0310
     29 C         142.1381  142.0350  169.0006 C.ar    1  UNL1        0.0088
     30 C         141.3189  142.9298  169.8830 C.ar    1  UNL1        0.0301
     31 C         139.9577  142.4930  170.3372 C.ar    1  UNL1        0.1402
     32 F         139.1387  143.3878  171.2196 F       1  UNL1       -0.2042
     33 C         139.4156  141.1615  169.9092 C.ar    1  UNL1        0.0301
     34 C         140.2347  140.2668  169.0269 C.ar    1  UNL1        0.0088
@<TRIPOS>BOND
     1    17    18    1
     2    18    11    1
     3    11    12   ar
     4    12    13   ar
     5    13     1    1
     6     1     2    1
     7     2     3    1
     8     3     4   ar
     9     4     5   ar
    10     5     6   ar
    11     6    27    1
    12    27    28    1
    13    28    29   ar
    14    29    30   ar
    15    30    31   ar
    16    31    32    1
    17    31    33   ar
    18    33    34   ar
    19     6     7   ar
    20     7     8   ar
    21     8     9    1
    22     9    10    2
    23    13    14   ar
    24    14    15   ar
    25    15    16   ar
    26    16    19    1
    27    19    20    1
    28    20    21    1
    29    21    22    1
    30    22    23    1
    31    23    24    1
    32    24    25    1
    33    25    26    1
    34    16    11   ar
    35    26    22    1
    36     9     1   am
    37     8     3   ar
    38    34    28   ar
@<TRIPOS>MOLECULE
*****
 34 38 0 0 0
SMALL
GASTEIGER

@<TRIPOS>ATOM
      1 N         141.5588  139.6006  159.6545 N.am    1  UNL1       -0.2495
      2 C         140.4714  139.1829  158.7095 C.3     1  UNL1        0.1267
      3 C         141.0197  138.1086  157.8177 C.ar    1  UNL1        0.0202
      4 C         140.4044  137.3228  156.6979 C.ar    1  UNL1        0.0011
      5 C         141.2155  136.2908  155.9719 C.ar    1  UNL1        0.0255
      6 C         142.6418  136.0446  156.3658 C.ar    1  UNL1        0.1108
      7 N         143.2570  136.8304  157.4855 N.ar    1  UNL1       -0.2345
      8 C         142.4460  137.8624  158.2115 C.ar    1  UNL1        0.1332
      9 C         142.7791  138.7845  159.3467 C.2     1  UNL1        0.2705
     10 O         144.1007  138.8747  160.0505 O.2     1  UNL1       -0.2679
     11 C         141.5041  141.3256  163.2282 C.ar    1  UNL1        0.1736
     12 C         141.6172  140.2760  162.1626 C.ar    1  UNL1        0.0549
     13 C         141.4458  140.6502  160.7202 C.ar    1  UNL1        0.0577
     14 C         141.1613  142.0739  160.3434 C.ar    1  UNL1        0.0182
     15 C         141.0482  143.1235  161.4091 C.ar    1  UNL1        0.0413
     16 C         141.2196  142.7493  162.8515 C.ar    1  UNL1        0.1724
     17 C         140.5946  140.1929  165.3823 C.3     1  UNL1        0.2526
     18 O         141.6755  140.9513  164.6707 O.3     1  UNL1       -0.4683
     19 O         141.1066  143.7989  163.9172 O.3     1  UNL1       -0.4709
     20 C         141.8917  145.0718  163.8025 C.3     1  UNL1        0.2228
     21 C         143.3797  145.0547  163.9909 C.3     1  UNL1        0.1200
     22 N         144.1591  143.8079  163.6938 N.3     1  UNL1       -0.2696
     23 C         144.5783  143.3331  162.3341 C.3     1  UNL1        0.0722
     24 C         145.3343  142.0488  162.5042 C.3     1  UNL1        0.0188
     25 C         145.3823  141.7297  163.9692 C.3     1  UNL1        0.0188
     26 C         144.6560  142.8169  164.7043 C.3     1  UNL1        0.0722
     27 S         143.4528  135.0125  155.6397 S.3     1  UNL1       -0.0680
     28 C         143.3705  133.5712  156.0470 C.ar    1  UNL1        0.0310
     29 C         142.2989  132.6905  155.4760 C.ar    1  UNL1        0.0088
     30 C         142.2166  131.2492  155.8833 C.ar    1  UNL1        0.0301
     31 C         143.2059  130.6886  156.8616 C.ar    1  UNL1        0.1402
     32 F         143.1235  129.2473  157.2689 F       1  UNL1       -0.2042
     33 C         144.2775  131.5693  157.4326 C.ar    1  UNL1        0.0301
     34 C         144.3598  133.0106  157.0253 C.ar    1  UNL1        0.0088
@<TRIPOS>BOND
     1    17    18    1
     2    18    11    1
     3    11    12   ar
     4    12    13   ar
     5    13     1    1
     6     1     2    1
     7     2     3    1
     8     3     4   ar
     9     4     5   ar
    10     5     6   ar
    11     6    27    1
    12    27    28    1
    13    28    29   ar
    14    29    30   ar
    15    30    31   ar
    16    31    32    1
    17    31    33   ar
    18    33    34   ar
    19     6     7   ar
    20     7     8   ar
    21     8     9    1
    22     9    10    2
    23    13    14   ar
    24    14    15   ar
    25    15    16   ar
    26    16    19    1
    27    19    20    1
    28    20    21    1
    29    21    22    1
    30    22    23    1
    31    23    24    1
    32    24    25    1
    33    25    26    1
    34    16    11   ar
    35    26    22    1
    36     9     1   am
    37     8     3   ar
    38    34    28   ar
@<TRIPOS>MOLECULE
*****
 34 38 0 0 0
SMALL
GASTEIGER

@<TRIPOS>ATOM
      1 N         139.9071  139.9548  159.4106 N.am    1  UNL1       -0.2495
      2 C         139.1592  139.3340  158.2682 C.3     1  UNL1        0.1267
      3 C         140.0685  138.3444  157.6019 C.ar    1  UNL1        0.0202
      4 C         139.8729  137.4362  156.4243 C.ar    1  UNL1        0.0011
      5 C         140.9873  136.5371  155.9773 C.ar    1  UNL1        0.0255
      6 C         142.2973  136.5464  156.7080 C.ar    1  UNL1        0.1108
      7 N         142.4929  137.4546  157.8856 N.ar    1  UNL1       -0.2345
      8 C         141.3785  138.3536  158.3325 C.ar    1  UNL1        0.1332
      9 C         141.2787  139.3489  159.4504 C.2     1  UNL1        0.2705
     10 O         142.3607  139.6801  160.4351 O.2     1  UNL1       -0.2679
     11 C         139.2301  143.4800  161.1030 C.ar    1  UNL1        0.1736
     12 C         139.7606  142.4366  160.1650 C.ar    1  UNL1        0.0549
     13 C         139.3767  140.9982  160.3486 C.ar    1  UNL1        0.0577
     14 C         138.4623  140.6034  161.4701 C.ar    1  UNL1        0.0182
     15 C         137.9318  141.6468  162.4081 C.ar    1  UNL1        0.0413
     16 C         138.3157  143.0852  162.2245 C.ar    1  UNL1        0.1724
     17 C         140.3940  145.3378  159.7087 C.3     1  UNL1        0.2526
     18 O         139.6140  144.9184  160.9193 O.3     1  UNL1       -0.4683
     19 O         137.7852  144.1286  163.1625 O.3     1  UNL1       -0.4709
     20 C         138.6580  144.6660  164.2576 C.3     1  UNL1        0.2228
     21 C         139.7309  143.8033  164.8532 C.3     1  UNL1        0.1200
     22 N         141.1711  144.0632  164.5240 N.3     1  UNL1       -0.2696
     23 C         141.7022  145.2378  163.7572 C.3     1  UNL1        0.0722
     24 C         143.1924  145.0945  163.6632 C.3     1  UNL1        0.0188
     25 C         143.5823  143.8313  164.3719 C.3     1  UNL1        0.0188
     26 C         142.3330  143.1939  164.9040 C.3     1  UNL1        0.0722
     27 S         143.4117  135.6473  156.2609 S.3     1  UNL1       -0.0680
     28 C         143.1438  134.1952  155.9968 C.ar    1  UNL1        0.0310
     29 C         143.1681  133.2102  157.1279 C.ar    1  UNL1        0.0088
     30 C         142.9001  131.7581  156.8637 C.ar    1  UNL1        0.0301
     31 C         142.6080  131.2911  155.4685 C.ar    1  UNL1        0.1402
     32 F         142.3401  129.8391  155.2044 F       1  UNL1       -0.2042
     33 C         142.5837  132.2761  154.3375 C.ar    1  UNL1        0.0301
     34 C         142.8516  133.7281  154.6016 C.ar    1  UNL1        0.0088
@<TRIPOS>BOND
     1    17    18    1
     2    18    11    1
     3    11    12   ar
     4    12    13   ar
     5    13     1    1
     6     1     2    1
     7     2     3    1
     8     3     4   ar
     9     4     5   ar
    10     5     6   ar
    11     6    27    1
    12    27    28    1
    13    28    29   ar
    14    29    30   ar
    15    30    31   ar
    16    31    32    1
    17    31    33   ar
    18    33    34   ar
    19     6     7   ar
    20     7     8   ar
    21     8     9    1
    22     9    10    2
    23    13    14   ar
    24    14    15   ar
    25    15    16   ar
    26    16    19    1
    27    19    20    1
    28    20    21    1
    29    21    22    1
    30    22    23    1
    31    23    24    1
    32    24    25    1
    33    25    26    1
    34    16    11   ar
    35    26    22    1
    36     9     1   am
    37     8     3   ar
    38    34    28   ar
