@<TRIPOS>MOLECULE
*****
 30 33 0 0 0
SMALL
GASTEIGER

@<TRIPOS>ATOM
      1 C         141.4564  142.0799  166.2770 C.2     1  UNL1        0.0041
      2 C         140.9676  142.5172  167.6261 C.2     1  UNL1        0.0130
      3 C         141.2445  141.6723  168.8342 C.3     1  UNL1        0.1542
      4 C         140.4787  142.9544  168.9751 C.3     1  UNL1        0.0614
      5 C         139.9899  143.3916  170.3241 C.3     1  UNL1        0.0725
      6 N         140.2669  142.5467  171.5322 N.3     1  UNL1       -0.2972
      7 C         141.0327  141.2647  171.3913 C.3     1  UNL1        0.0725
      8 C         141.5215  140.8275  170.0423 C.3     1  UNL1        0.0614
      9 O         142.0104  140.3902  168.6932 O.3     1  UNL1       -0.4785
     10 C         142.4992  139.9530  167.3442 C.ar    1  UNL1        0.1386
     11 C         143.2650  138.6709  167.2033 C.ar    1  UNL1        0.0369
     12 C         143.7539  138.2338  165.8543 C.ar    1  UNL1        0.0031
     13 C         143.4769  139.0786  164.6462 C.ar    1  UNL1        0.0002
     14 C         142.7111  140.3606  164.7871 C.ar    1  UNL1        0.0030
     15 C         142.2222  140.7979  166.1361 C.ar    1  UNL1        0.0339
     16 H         139.3621  142.3063  171.9371 H       1  UNL1        0.1233
     17 C         140.6256  144.6145  162.6527 C.ar    1  UNL1        0.0558
     18 C         139.5392  143.7599  163.2353 C.ar    1  UNL1        0.0047
     19 C         139.8162  142.9151  164.4434 C.ar    1  UNL1        0.0024
     20 C         141.1795  142.9248  165.0689 C.ar    1  UNL1        0.0274
     21 C         142.2659  143.7794  164.4863 C.ar    1  UNL1        0.1402
     22 F         143.6292  143.7891  165.1117 F       1  UNL1       -0.2042
     23 C         141.9890  144.6242  163.2781 C.ar    1  UNL1        0.0341
     24 N         140.7122  144.9570  160.0788 N.am    1  UNL1       -0.2761
     25 C         140.3486  145.4593  161.4446 C.2     1  UNL1        0.2491
     26 O         139.7080  146.8065  161.6023 O.2     1  UNL1       -0.2699
     27 C         141.3807  145.7784  157.7063 C.3     1  UNL1        0.0233
     28 C         140.4353  145.8019  158.8707 C.3     1  UNL1        0.0938
     29 C         141.3528  143.6099  159.9210 C.3     1  UNL1        0.0938
     30 C         140.4991  142.3903  159.7371 C.3     1  UNL1        0.0233
@<TRIPOS>BOND
     1    27    28    1
     2    28    24    1
     3    24    29    1
     4    29    30    1
     5    24    25   am
     6    25    26    2
     7    25    17    1
     8    17    18   ar
     9    18    19   ar
    10    19    20   ar
    11    20     1    1
    12     1     2    2
    13     2     3    1
    14     3     4    1
    15     4     5    1
    16     5     6    1
    17     6     7    1
    18     7     8    1
    19     3     9    1
    20     9    10    1
    21    10    11   ar
    22    11    12   ar
    23    12    13   ar
    24    13    14   ar
    25    14    15   ar
    26    20    21   ar
    27    21    22    1
    28    21    23   ar
    29    23    17   ar
    30    15     1    1
    31     8     3    1
    32    15    10   ar
    33     6    16    1
@<TRIPOS>MOLECULE
*****
 30 33 0 0 0
SMALL
GASTEIGER

@<TRIPOS>ATOM
      1 C         139.8292  141.9678  165.8112 C.2     1  UNL1        0.0041
      2 C         140.2099  142.4744  167.1709 C.2     1  UNL1        0.0130
      3 C         140.1866  141.5477  168.3501 C.3     1  UNL1        0.1542
      4 C         140.5906  142.9809  168.5304 C.3     1  UNL1        0.0614
      5 C         140.9712  143.4874  169.8900 C.3     1  UNL1        0.0725
      6 N         140.9480  142.5607  171.0692 N.3     1  UNL1       -0.2972
      7 C         140.5440  141.1274  170.8889 C.3     1  UNL1        0.0725
      8 C         140.1633  140.6209  169.5293 C.3     1  UNL1        0.0614
      9 O         139.7826  140.1144  168.1697 O.3     1  UNL1       -0.4785
     10 C         139.4019  139.6079  166.8101 C.ar    1  UNL1        0.1386
     11 C         138.9979  138.1745  166.6297 C.ar    1  UNL1        0.0369
     12 C         138.6172  137.6680  165.2702 C.ar    1  UNL1        0.0031
     13 C         138.6405  138.5948  164.0909 C.ar    1  UNL1        0.0002
     14 C         139.0445  140.0280  164.2713 C.ar    1  UNL1        0.0030
     15 C         139.4252  140.5346  165.6309 C.ar    1  UNL1        0.0339
     16 H         140.3036  142.9650  171.7488 H       1  UNL1        0.1233
     17 C         139.8990  144.7481  162.2735 C.ar    1  UNL1        0.0558
     18 C         141.1852  144.2310  162.8466 C.ar    1  UNL1        0.0047
     19 C         141.1619  143.3043  164.0258 C.ar    1  UNL1        0.0024
     20 C         139.8524  142.8946  164.6320 C.ar    1  UNL1        0.0274
     21 C         138.5662  143.4117  164.0589 C.ar    1  UNL1        0.1402
     22 F         137.2568  143.0020  164.6651 F       1  UNL1       -0.2042
     23 C         138.5895  144.3384  162.8797 C.ar    1  UNL1        0.0341
     24 N         140.2483  145.1442  159.7297 N.am    1  UNL1       -0.2761
     25 C         139.9223  145.6748  161.0943 C.2     1  UNL1        0.2491
     26 O         139.6196  147.1323  161.2797 O.2     1  UNL1       -0.2699
     27 C         141.2912  145.8803  157.4668 C.3     1  UNL1        0.0233
     28 C         140.2716  146.0709  158.5505 C.3     1  UNL1        0.0938
     29 C         140.5511  143.6867  159.5443 C.3     1  UNL1        0.0938
     30 C         139.4384  142.7183  159.2723 C.3     1  UNL1        0.0233
@<TRIPOS>BOND
     1    27    28    1
     2    28    24    1
     3    24    29    1
     4    29    30    1
     5    24    25   am
     6    25    26    2
     7    25    17    1
     8    17    18   ar
     9    18    19   ar
    10    19    20   ar
    11    20     1    1
    12     1     2    2
    13     2     3    1
    14     3     4    1
    15     4     5    1
    16     5     6    1
    17     6     7    1
    18     7     8    1
    19     3     9    1
    20     9    10    1
    21    10    11   ar
    22    11    12   ar
    23    12    13   ar
    24    13    14   ar
    25    14    15   ar
    26    20    21   ar
    27    21    22    1
    28    21    23   ar
    29    23    17   ar
    30    15     1    1
    31     8     3    1
    32    15    10   ar
    33     6    16    1
@<TRIPOS>MOLECULE
*****
 30 33 0 0 0
SMALL
GASTEIGER

@<TRIPOS>ATOM
      1 C         141.5200  140.9305  166.2988 C.2     1  UNL1        0.0041
      2 C         142.1437  141.5559  167.5112 C.2     1  UNL1        0.0130
      3 C         141.5029  141.3853  168.8567 C.3     1  UNL1        0.1542
      4 C         142.7672  142.1813  168.7236 C.3     1  UNL1        0.0614
      5 C         143.3908  142.8067  169.9361 C.3     1  UNL1        0.0725
      6 N         142.7500  142.6361  171.2815 N.3     1  UNL1       -0.2972
      7 C         141.4857  141.8401  171.4146 C.3     1  UNL1        0.0725
      8 C         140.8621  141.2147  170.2022 C.3     1  UNL1        0.0614
      9 O         140.2385  140.5893  168.9897 O.3     1  UNL1       -0.4785
     10 C         139.6149  139.9639  167.7773 C.ar    1  UNL1        0.1386
     11 C         138.3505  139.1678  167.9103 C.ar    1  UNL1        0.0369
     12 C         137.7269  138.5424  166.6979 C.ar    1  UNL1        0.0031
     13 C         138.3677  138.7130  165.3524 C.ar    1  UNL1        0.0002
     14 C         139.6320  139.5090  165.2194 C.ar    1  UNL1        0.0030
     15 C         140.2557  140.1345  166.4318 C.ar    1  UNL1        0.0339
     16 H         142.5468  143.5723  171.6317 H       1  UNL1        0.1233
     17 C         143.4424  141.4423  162.2624 C.ar    1  UNL1        0.0558
     18 C         142.3122  142.3385  162.6739 C.ar    1  UNL1        0.0047
     19 C         141.6714  142.1679  164.0193 C.ar    1  UNL1        0.0024
     20 C         142.1608  141.1011  164.9533 C.ar    1  UNL1        0.0274
     21 C         143.2911  140.2048  164.5418 C.ar    1  UNL1        0.1402
     22 F         143.7805  139.1380  165.4758 F       1  UNL1       -0.2042
     23 C         143.9319  140.3754  163.1964 C.ar    1  UNL1        0.0341
     24 N         143.6099  140.7953  159.7517 N.am    1  UNL1       -0.2761
     25 C         144.0832  141.6128  160.9169 C.2     1  UNL1        0.2491
     26 O         145.1972  142.6010  160.7366 O.2     1  UNL1       -0.2699
     27 C         143.9329  142.1711  157.5716 C.3     1  UNL1        0.0233
     28 C         144.2507  140.9659  158.4063 C.3     1  UNL1        0.0938
     29 C         142.4959  139.8071  159.9320 C.3     1  UNL1        0.0938
     30 C         142.8057  138.3478  160.0874 C.3     1  UNL1        0.0233
@<TRIPOS>BOND
     1    27    28    1
     2    28    24    1
     3    24    29    1
     4    29    30    1
     5    24    25   am
     6    25    26    2
     7    25    17    1
     8    17    18   ar
     9    18    19   ar
    10    19    20   ar
    11    20     1    1
    12     1     2    2
    13     2     3    1
    14     3     4    1
    15     4     5    1
    16     5     6    1
    17     6     7    1
    18     7     8    1
    19     3     9    1
    20     9    10    1
    21    10    11   ar
    22    11    12   ar
    23    12    13   ar
    24    13    14   ar
    25    14    15   ar
    26    20    21   ar
    27    21    22    1
    28    21    23   ar
    29    23    17   ar
    30    15     1    1
    31     8     3    1
    32    15    10   ar
    33     6    16    1
@<TRIPOS>MOLECULE
*****
 30 33 0 0 0
SMALL
GASTEIGER

@<TRIPOS>ATOM
      1 C         141.3146  140.1859  166.2332 C.2     1  UNL1        0.0041
      2 C         142.1707  141.0035  167.1545 C.2     1  UNL1        0.0130
      3 C         141.7157  141.2744  168.5579 C.3     1  UNL1        0.1542
      4 C         143.0267  141.8210  168.0758 C.3     1  UNL1        0.0614
      5 C         143.8827  142.6386  168.9971 C.3     1  UNL1        0.0725
      6 N         143.4277  142.9096  170.4005 N.3     1  UNL1       -0.2972
      7 C         142.1167  142.3630  170.8826 C.3     1  UNL1        0.0725
      8 C         141.2607  141.5454  169.9613 C.3     1  UNL1        0.0614
      9 O         140.4046  140.7278  169.0400 O.3     1  UNL1       -0.4785
     10 C         139.5486  139.9102  168.1187 C.ar    1  UNL1        0.1386
     11 C         138.2376  139.3636  168.6009 C.ar    1  UNL1        0.0369
     12 C         137.3816  138.5460  167.6796 C.ar    1  UNL1        0.0031
     13 C         137.8365  138.2750  166.2762 C.ar    1  UNL1        0.0002
     14 C         139.1475  138.8216  165.7940 C.ar    1  UNL1        0.0030
     15 C         140.0036  139.6393  166.7153 C.ar    1  UNL1        0.0339
     16 H         143.3800  143.9232  170.5040 H       1  UNL1        0.1233
     17 C         142.6795  139.3730  162.0230 C.ar    1  UNL1        0.0558
     18 C         141.9895  140.6636  162.3517 C.ar    1  UNL1        0.0047
     19 C         141.5345  140.9346  163.7551 C.ar    1  UNL1        0.0024
     20 C         141.7696  139.9149  164.8298 C.ar    1  UNL1        0.0274
     21 C         142.4596  138.6242  164.5011 C.ar    1  UNL1        0.1402
     22 F         142.6947  137.6046  165.5758 F       1  UNL1       -0.2042
     23 C         142.9146  138.3533  163.0977 C.ar    1  UNL1        0.0341
     24 N         142.1361  138.7164  159.5687 N.am    1  UNL1       -0.2761
     25 C         143.1345  139.1020  160.6195 C.2     1  UNL1        0.2491
     26 O         144.5880  139.2168  160.2670 O.2     1  UNL1       -0.2699
     27 C         141.8098  137.5097  157.2910 C.3     1  UNL1        0.0233
     28 C         142.5911  138.4454  158.1653 C.3     1  UNL1        0.0938
     29 C         140.6826  138.6017  159.9212 C.3     1  UNL1        0.0938
     30 C         139.7317  139.7007  159.5497 C.3     1  UNL1        0.0233
@<TRIPOS>BOND
     1    27    28    1
     2    28    24    1
     3    24    29    1
     4    29    30    1
     5    24    25   am
     6    25    26    2
     7    25    17    1
     8    17    18   ar
     9    18    19   ar
    10    19    20   ar
    11    20     1    1
    12     1     2    2
    13     2     3    1
    14     3     4    1
    15     4     5    1
    16     5     6    1
    17     6     7    1
    18     7     8    1
    19     3     9    1
    20     9    10    1
    21    10    11   ar
    22    11    12   ar
    23    12    13   ar
    24    13    14   ar
    25    14    15   ar
    26    20    21   ar
    27    21    22    1
    28    21    23   ar
    29    23    17   ar
    30    15     1    1
    31     8     3    1
    32    15    10   ar
    33     6    16    1
@<TRIPOS>MOLECULE
*****
 30 33 0 0 0
SMALL
GASTEIGER

@<TRIPOS>ATOM
      1 C         141.4747  140.3844  166.1850 C.2     1  UNL1        0.0041
      2 C         142.2561  141.1111  167.2393 C.2     1  UNL1        0.0130
      3 C         141.7204  141.2073  168.6371 C.3     1  UNL1        0.1542
      4 C         143.0374  141.8377  168.2936 C.3     1  UNL1        0.0614
      5 C         143.8187  142.5644  169.3478 C.3     1  UNL1        0.0725
      6 N         143.2830  142.6606  170.7456 N.3     1  UNL1       -0.2972
      7 C         141.9660  142.0302  171.0891 C.3     1  UNL1        0.0725
      8 C         141.1847  141.3036  170.0348 C.3     1  UNL1        0.0614
      9 O         140.4033  140.5769  168.9805 O.3     1  UNL1       -0.4785
     10 C         139.6220  139.8503  167.9263 C.ar    1  UNL1        0.1386
     11 C         138.3049  139.2198  168.2698 C.ar    1  UNL1        0.0369
     12 C         137.5236  138.4932  167.2155 C.ar    1  UNL1        0.0031
     13 C         138.0593  138.3969  165.8177 C.ar    1  UNL1        0.0002
     14 C         139.3764  139.0273  165.4742 C.ar    1  UNL1        0.0030
     15 C         140.1577  139.7540  166.5285 C.ar    1  UNL1        0.0339
     16 H         143.1990  143.6541  170.9610 H       1  UNL1        0.1233
     17 C         143.0819  140.0957  161.9917 C.ar    1  UNL1        0.0558
     18 C         143.7704  139.3715  163.1103 C.ar    1  UNL1        0.0047
     19 C         143.2347  139.4677  164.5081 C.ar    1  UNL1        0.0024
     20 C         142.0105  140.2882  164.7872 C.ar    1  UNL1        0.0274
     21 C         141.3218  141.0125  163.6686 C.ar    1  UNL1        0.1402
     22 F         140.0976  141.8329  163.9478 F       1  UNL1       -0.2042
     23 C         141.8575  140.9162  162.2708 C.ar    1  UNL1        0.0341
     24 N         143.9720  141.2462  159.8391 N.am    1  UNL1       -0.2761
     25 C         143.6176  139.9994  160.5939 C.2     1  UNL1        0.2491
     26 O         143.7988  138.6563  159.9510 O.2     1  UNL1       -0.2699
     27 C         144.9481  142.3893  157.7199 C.3     1  UNL1        0.0233
     28 C         144.5078  141.1500  158.4413 C.3     1  UNL1        0.0938
     29 C         143.7908  142.5893  160.4820 C.3     1  UNL1        0.0938
     30 C         144.7423  143.0449  161.5484 C.3     1  UNL1        0.0233
@<TRIPOS>BOND
     1    27    28    1
     2    28    24    1
     3    24    29    1
     4    29    30    1
     5    24    25   am
     6    25    26    2
     7    25    17    1
     8    17    18   ar
     9    18    19   ar
    10    19    20   ar
    11    20     1    1
    12     1     2    2
    13     2     3    1
    14     3     4    1
    15     4     5    1
    16     5     6    1
    17     6     7    1
    18     7     8    1
    19     3     9    1
    20     9    10    1
    21    10    11   ar
    22    11    12   ar
    23    12    13   ar
    24    13    14   ar
    25    14    15   ar
    26    20    21   ar
    27    21    22    1
    28    21    23   ar
    29    23    17   ar
    30    15     1    1
    31     8     3    1
    32    15    10   ar
    33     6    16    1
@<TRIPOS>MOLECULE
*****
 30 33 0 0 0
SMALL
GASTEIGER

@<TRIPOS>ATOM
      1 C         141.9665  141.6658  166.3718 C.2     1  UNL1        0.0041
      2 C         141.3375  142.3302  167.5605 C.2     1  UNL1        0.0130
      3 C         141.3915  141.6682  168.9055 C.3     1  UNL1        0.1542
      4 C         140.7084  142.9944  168.7492 C.3     1  UNL1        0.0614
      5 C         140.0794  143.6587  169.9378 C.3     1  UNL1        0.0725
      6 N         140.1334  142.9968  171.2828 N.3     1  UNL1       -0.2972
      7 C         140.8166  141.6706  171.4391 C.3     1  UNL1        0.0725
      8 C         141.4456  141.0063  170.2504 C.3     1  UNL1        0.0614
      9 O         142.0747  140.3420  169.0617 O.3     1  UNL1       -0.4785
     10 C         142.7037  139.6777  167.8731 C.ar    1  UNL1        0.1386
     11 C         143.3869  138.3514  168.0293 C.ar    1  UNL1        0.0369
     12 C         144.0160  137.6871  166.8407 C.ar    1  UNL1        0.0031
     13 C         143.9619  138.3490  165.4957 C.ar    1  UNL1        0.0002
     14 C         143.2788  139.6752  165.3394 C.ar    1  UNL1        0.0030
     15 C         142.6497  140.3396  166.5281 C.ar    1  UNL1        0.0339
     16 H         139.1683  142.8685  171.5868 H       1  UNL1        0.1233
     17 C         141.8043  143.6515  162.3369 C.ar    1  UNL1        0.0558
     18 C         142.7332  144.1733  163.3928 C.ar    1  UNL1        0.0047
     19 C         142.7873  143.5114  164.7377 C.ar    1  UNL1        0.0024
     20 C         141.9125  142.3277  165.0268 C.ar    1  UNL1        0.0274
     21 C         140.9835  141.8059  163.9709 C.ar    1  UNL1        0.1402
     22 F         140.1087  140.6223  164.2600 F       1  UNL1       -0.2042
     23 C         140.9295  142.4678  162.6259 C.ar    1  UNL1        0.0341
     24 N         140.7859  145.4359  160.7466 N.am    1  UNL1       -0.2761
     25 C         141.7503  144.3135  160.9919 C.2     1  UNL1        0.2491
     26 O         142.6606  143.8529  159.8922 O.2     1  UNL1       -0.2699
     27 C         140.2051  145.3450  158.2159 C.3     1  UNL1        0.0233
     28 C         140.7319  146.0978  159.4016 C.3     1  UNL1        0.0938
     29 C         139.8756  145.8964  161.8463 C.3     1  UNL1        0.0938
     30 C         138.6835  145.0702  162.2285 C.3     1  UNL1        0.0233
@<TRIPOS>BOND
     1    27    28    1
     2    28    24    1
     3    24    29    1
     4    29    30    1
     5    24    25   am
     6    25    26    2
     7    25    17    1
     8    17    18   ar
     9    18    19   ar
    10    19    20   ar
    11    20     1    1
    12     1     2    2
    13     2     3    1
    14     3     4    1
    15     4     5    1
    16     5     6    1
    17     6     7    1
    18     7     8    1
    19     3     9    1
    20     9    10    1
    21    10    11   ar
    22    11    12   ar
    23    12    13   ar
    24    13    14   ar
    25    14    15   ar
    26    20    21   ar
    27    21    22    1
    28    21    23   ar
    29    23    17   ar
    30    15     1    1
    31     8     3    1
    32    15    10   ar
    33     6    16    1
@<TRIPOS>MOLECULE
*****
 30 33 0 0 0
SMALL
GASTEIGER

@<TRIPOS>ATOM
      1 C         141.9979  142.1828  162.4568 C.2     1  UNL1        0.0041
      2 C         142.6034  141.2601  161.4408 C.2     1  UNL1        0.0130
      3 C         142.5367  141.6033  159.9821 C.3     1  UNL1        0.1542
      4 C         143.2088  140.3376  160.4248 C.3     1  UNL1        0.0614
      5 C         143.8143  139.4150  159.4088 C.3     1  UNL1        0.0725
      6 N         143.7476  139.7582  157.9501 N.3     1  UNL1       -0.2972
      7 C         143.0754  141.0239  157.5074 C.3     1  UNL1        0.0725
      8 C         142.4700  141.9465  158.5234 C.3     1  UNL1        0.0614
      9 O         141.8645  142.8692  159.5394 O.3     1  UNL1       -0.4785
     10 C         141.2591  143.7917  160.5554 C.ar    1  UNL1        0.1386
     11 C         140.5869  145.0576  160.1127 C.ar    1  UNL1        0.0369
     12 C         139.9814  145.9801  161.1286 C.ar    1  UNL1        0.0031
     13 C         140.0481  145.6370  162.5873 C.ar    1  UNL1        0.0002
     14 C         140.7203  144.3712  163.0300 C.ar    1  UNL1        0.0030
     15 C         141.3258  143.4485  162.0140 C.ar    1  UNL1        0.0339
     16 H         143.2610  138.9895  157.4887 H       1  UNL1        0.1233
     17 C         142.1980  141.1532  166.8328 C.ar    1  UNL1        0.0558
     18 C         143.2431  142.0392  166.2222 C.ar    1  UNL1        0.0047
     19 C         143.1764  142.3824  164.7635 C.ar    1  UNL1        0.0024
     20 C         142.0646  141.8396  163.9154 C.ar    1  UNL1        0.0274
     21 C         141.0194  140.9536  164.5260 C.ar    1  UNL1        0.1402
     22 F         139.9077  140.4109  163.6779 F       1  UNL1       -0.2042
     23 C         141.0861  140.6104  165.9847 C.ar    1  UNL1        0.0341
     24 N         141.5943  141.6937  169.3013 N.am    1  UNL1       -0.2761
     25 C         142.2647  140.8100  168.2915 C.2     1  UNL1        0.2491
     26 O         143.0019  139.5832  168.7404 O.2     1  UNL1       -0.2699
     27 C         140.6648  140.3984  171.3528 C.3     1  UNL1        0.0233
     28 C         141.6610  141.3505  170.7600 C.3     1  UNL1        0.0938
     29 C         140.8571  142.9206  168.8524 C.3     1  UNL1        0.0938
     30 C         140.4063  143.9356  169.8606 C.3     1  UNL1        0.0233
@<TRIPOS>BOND
     1    27    28    1
     2    28    24    1
     3    24    29    1
     4    29    30    1
     5    24    25   am
     6    25    26    2
     7    25    17    1
     8    17    18   ar
     9    18    19   ar
    10    19    20   ar
    11    20     1    1
    12     1     2    2
    13     2     3    1
    14     3     4    1
    15     4     5    1
    16     5     6    1
    17     6     7    1
    18     7     8    1
    19     3     9    1
    20     9    10    1
    21    10    11   ar
    22    11    12   ar
    23    12    13   ar
    24    13    14   ar
    25    14    15   ar
    26    20    21   ar
    27    21    22    1
    28    21    23   ar
    29    23    17   ar
    30    15     1    1
    31     8     3    1
    32    15    10   ar
    33     6    16    1
@<TRIPOS>MOLECULE
*****
 30 33 0 0 0
SMALL
GASTEIGER

@<TRIPOS>ATOM
      1 C         141.6171  140.2166  163.6408 C.2     1  UNL1        0.0041
      2 C         140.5089  139.6224  164.4588 C.2     1  UNL1        0.0130
      3 C         140.3327  140.0300  165.8915 C.3     1  UNL1        0.1542
      4 C         139.4008  139.0283  165.2767 C.3     1  UNL1        0.0614
      5 C         138.2927  138.4342  166.0946 C.3     1  UNL1        0.0725
      6 N         138.1164  138.8419  167.5274 N.3     1  UNL1       -0.2972
      7 C         139.0483  139.8436  168.1422 C.3     1  UNL1        0.0725
      8 C         140.1565  140.4377  167.3243 C.3     1  UNL1        0.0614
      9 O         141.2647  141.0318  166.5064 O.3     1  UNL1       -0.4785
     10 C         142.3728  141.6259  165.6884 C.ar    1  UNL1        0.1386
     11 C         143.3048  142.6277  166.3033 C.ar    1  UNL1        0.0369
     12 C         144.4129  143.2218  165.4853 C.ar    1  UNL1        0.0031
     13 C         144.5892  142.8142  164.0526 C.ar    1  UNL1        0.0002
     14 C         143.6573  141.8124  163.4378 C.ar    1  UNL1        0.0030
     15 C         142.5490  141.2183  164.2557 C.ar    1  UNL1        0.0339
     16 H         138.1877  137.9916  168.0863 H       1  UNL1        0.1233
     17 C         142.1458  138.9937  159.3426 C.ar    1  UNL1        0.0558
     18 C         141.1268  140.0324  159.7069 C.ar    1  UNL1        0.0047
     19 C         140.9506  140.4400  161.1397 C.ar    1  UNL1        0.0024
     20 C         141.7934  139.8090  162.2081 C.ar    1  UNL1        0.0274
     21 C         142.8124  138.7702  161.8438 C.ar    1  UNL1        0.1402
     22 F         143.6552  138.1392  162.9121 F       1  UNL1       -0.2042
     23 C         142.9886  138.3626  160.4110 C.ar    1  UNL1        0.0341
     24 N         143.3146  139.3024  157.0429 N.am    1  UNL1       -0.2761
     25 C         142.3221  138.5861  157.9098 C.2     1  UNL1        0.2491
     26 O         141.5056  137.4621  157.3440 O.2     1  UNL1       -0.2699
     27 C         144.3567  137.7192  155.2659 C.3     1  UNL1        0.0233
     28 C         143.4909  138.8948  155.6102 C.3     1  UNL1        0.0938
     29 C         144.1311  140.4264  157.6088 C.3     1  UNL1        0.0938
     30 C         145.2737  140.9944  156.8202 C.3     1  UNL1        0.0233
@<TRIPOS>BOND
     1    27    28    1
     2    28    24    1
     3    24    29    1
     4    29    30    1
     5    24    25   am
     6    25    26    2
     7    25    17    1
     8    17    18   ar
     9    18    19   ar
    10    19    20   ar
    11    20     1    1
    12     1     2    2
    13     2     3    1
    14     3     4    1
    15     4     5    1
    16     5     6    1
    17     6     7    1
    18     7     8    1
    19     3     9    1
    20     9    10    1
    21    10    11   ar
    22    11    12   ar
    23    12    13   ar
    24    13    14   ar
    25    14    15   ar
    26    20    21   ar
    27    21    22    1
    28    21    23   ar
    29    23    17   ar
    30    15     1    1
    31     8     3    1
    32    15    10   ar
    33     6    16    1
@<TRIPOS>MOLECULE
*****
 30 33 0 0 0
SMALL
GASTEIGER

@<TRIPOS>ATOM
      1 C         141.3228  141.3174  164.5575 C.2     1  UNL1        0.0041
      2 C         141.7016  141.7332  165.9481 C.2     1  UNL1        0.0130
      3 C         142.0057  140.6932  166.9853 C.3     1  UNL1        0.1542
      4 C         142.0803  142.1490  167.3386 C.3     1  UNL1        0.0614
      5 C         142.4591  142.5648  168.7291 C.3     1  UNL1        0.0725
      6 N         142.7632  141.5247  169.7663 N.3     1  UNL1       -0.2972
      7 C         142.6885  140.0689  169.4130 C.3     1  UNL1        0.0725
      8 C         142.3098  139.6531  168.0225 C.3     1  UNL1        0.0614
      9 O         141.9310  139.2372  166.6319 O.3     1  UNL1       -0.4785
     10 C         141.5523  138.8215  165.2414 C.ar    1  UNL1        0.1386
     11 C         141.4776  137.3655  164.8880 C.ar    1  UNL1        0.0369
     12 C         141.0988  136.9498  163.4974 C.ar    1  UNL1        0.0031
     13 C         140.7947  137.9898  162.4602 C.ar    1  UNL1        0.0002
     14 C         140.8694  139.4457  162.8136 C.ar    1  UNL1        0.0030
     15 C         141.2482  139.8615  164.2042 C.ar    1  UNL1        0.0339
     16 H         142.1094  141.6751  170.5347 H       1  UNL1        0.1233
     17 C         140.4106  144.4376  161.4459 C.ar    1  UNL1        0.0558
     18 C         141.8270  144.2029  161.8799 C.ar    1  UNL1        0.0047
     19 C         142.1311  143.1628  162.9171 C.ar    1  UNL1        0.0024
     20 C         141.0187  142.3574  163.5203 C.ar    1  UNL1        0.0274
     21 C         139.6022  142.5921  163.0862 C.ar    1  UNL1        0.1402
     22 F         138.4898  141.7867  163.6894 F       1  UNL1       -0.2042
     23 C         139.2981  143.6321  162.0490 C.ar    1  UNL1        0.0341
     24 N         140.4117  145.2087  158.9649 N.am    1  UNL1       -0.2761
     25 C         140.1065  145.4776  160.4086 C.2     1  UNL1        0.2491
     26 O         139.4972  146.7866  160.8153 O.2     1  UNL1       -0.2699
     27 C         140.7430  146.1638  156.5715 C.3     1  UNL1        0.0233
     28 C         140.1076  146.2488  157.9277 C.3     1  UNL1        0.0938
     29 C         141.0210  143.8997  158.5583 C.3     1  UNL1        0.0938
     30 C         142.5062  143.7865  158.3813 C.3     1  UNL1        0.0233
@<TRIPOS>BOND
     1    27    28    1
     2    28    24    1
     3    24    29    1
     4    29    30    1
     5    24    25   am
     6    25    26    2
     7    25    17    1
     8    17    18   ar
     9    18    19   ar
    10    19    20   ar
    11    20     1    1
    12     1     2    2
    13     2     3    1
    14     3     4    1
    15     4     5    1
    16     5     6    1
    17     6     7    1
    18     7     8    1
    19     3     9    1
    20     9    10    1
    21    10    11   ar
    22    11    12   ar
    23    12    13   ar
    24    13    14   ar
    25    14    15   ar
    26    20    21   ar
    27    21    22    1
    28    21    23   ar
    29    23    17   ar
    30    15     1    1
    31     8     3    1
    32    15    10   ar
    33     6    16    1
