@<TRIPOS>MOLECULE
*****
 35 39 0 0 0
SMALL
GASTEIGER

@<TRIPOS>ATOM
      1 C         140.3510  146.9964  154.2224 C.ar    1  UNL1        0.0644
      2 C         139.2961  147.5970  155.1036 C.ar    1  UNL1        0.0189
      3 C         139.2187  147.2108  156.5509 C.ar    1  UNL1        0.0380
      4 C         140.1962  146.2238  157.1171 C.ar    1  UNL1        0.1365
      5 C         141.2511  145.6232  156.2359 C.ar    1  UNL1        0.0396
      6 C         141.3284  146.0095  154.7886 C.ar    1  UNL1        0.0169
      7 C         142.2285  144.6363  156.8021 C.3     1  UNL1        0.1391
      8 O         143.2834  144.0356  155.9209 O.3     1  UNL1       -0.3798
      9 C         142.1512  144.2500  158.2495 C.3     1  UNL1        0.0740
     10 C         141.0963  144.8506  159.1307 C.3     1  UNL1        0.1384
     11 C         142.0738  143.8638  159.6968 C.3     1  UNL1        0.0574
     12 C         141.9964  143.4775  161.1441 C.3     1  UNL1        0.0757
     13 N         140.9416  144.0782  162.0253 N.3     1  UNL1       -0.2734
     14 C         139.9641  145.0651  161.4592 C.3     1  UNL1        0.0757
     15 C         140.0415  145.4513  160.0119 C.3     1  UNL1        0.0574
     16 O         140.1188  145.8376  158.5645 O.3     1  UNL1       -0.4826
     17 H         143.8276  143.4228  156.4397 H       1  UNL1        0.2108
     18 C         140.8642  143.6919  163.4727 C.3     1  UNL1        0.0622
     19 C         139.5457  143.7212  164.1873 C.3     1  UNL1        0.0210
     20 C         139.4683  143.3349  165.6346 C.3     1  UNL1        0.0274
     21 C         140.7095  142.9193  166.3674 C.ar    1  UNL1       -0.0254
     22 C         140.6321  142.5331  167.8147 C.ar    1  UNL1        0.0057
     23 C         141.8732  142.1175  168.5474 C.ar    1  UNL1        0.0681
     24 C         143.1917  142.0882  167.8328 C.ar    1  UNL1        0.0099
     25 C         143.2691  142.4745  166.3855 C.ar    1  UNL1       -0.0038
     26 C         142.0280  142.8900  165.6528 C.ar    1  UNL1       -0.0247
     27 C         142.1053  143.2763  164.2054 C.3     1  UNL1        0.0420
     28 C         141.7958  141.7312  169.9948 C.1     1  UNL1        0.1004
     29 N         141.7185  141.3450  171.4421 N.1     1  UNL1       -0.1908
     30 N         140.4283  147.3826  152.7751 N.pl3   1  UNL1       -0.2187
     31 H         140.0098  146.8123  152.0904 H       1  UNL1        0.1734
     32 C         141.8587  149.8928  151.9669 C.3     1  UNL1        0.1996
     33 S         141.1435  148.6377  152.3710 S.O2    1  UNL1        0.0558
     34 O         142.4093  147.8555  152.1817 O.2     1  UNL1       -0.1544
     35 O         139.8778  149.4200  152.5603 O.2     1  UNL1       -0.1544
@<TRIPOS>BOND
     1    32    33    1
     2    33    34    2
     3    33    35    2
     4    33    30    1
     5    30     1    1
     6     1     2   ar
     7     2     3   ar
     8     3     4   ar
     9     4     5   ar
    10     5     6   ar
    11     5     7    1
    12     7     8    1
    13     7     9    1
    14     9    10    1
    15    10    11    1
    16    11    12    1
    17    12    13    1
    18    13    18    1
    19    18    19    1
    20    19    20    1
    21    20    21    1
    22    21    22   ar
    23    22    23   ar
    24    23    28    1
    25    28    29    3
    26    23    24   ar
    27    24    25   ar
    28    25    26   ar
    29    26    27    1
    30    13    14    1
    31    14    15    1
    32    10    16    1
    33     6     1   ar
    34    15    10    1
    35    16     4    1
    36    27    18    1
    37    26    21   ar
    38    30    31    1
    39     8    17    1
@<TRIPOS>MOLECULE
*****
 35 39 0 0 0
SMALL
GASTEIGER

@<TRIPOS>ATOM
      1 C         146.4401  142.5485  154.9045 C.ar    1  UNL1        0.0644
      2 C         147.4107  142.6108  156.0464 C.ar    1  UNL1        0.0189
      3 C         146.9072  142.6143  157.4594 C.ar    1  UNL1        0.0380
      4 C         145.4330  142.5555  157.7304 C.ar    1  UNL1        0.1365
      5 C         144.4624  142.4933  156.5885 C.ar    1  UNL1        0.0396
      6 C         144.9660  142.4898  155.1755 C.ar    1  UNL1        0.0169
      7 C         142.9883  142.4346  156.8595 C.3     1  UNL1        0.1391
      8 O         142.0177  142.3723  155.7175 O.3     1  UNL1       -0.3798
      9 C         142.4847  142.4381  158.2725 C.3     1  UNL1        0.0740
     10 C         143.4554  142.5003  159.4144 C.3     1  UNL1        0.1384
     11 C         141.9812  142.4415  159.6854 C.3     1  UNL1        0.0574
     12 C         141.4777  142.4450  161.0983 C.3     1  UNL1        0.0757
     13 N         142.4484  142.5073  162.2403 N.3     1  UNL1       -0.2734
     14 C         143.9225  142.5660  161.9693 C.3     1  UNL1        0.0757
     15 C         144.4260  142.5625  160.5564 C.3     1  UNL1        0.0574
     16 O         144.9295  142.5590  159.1434 O.3     1  UNL1       -0.4826
     17 H         141.1123  142.3395  156.0641 H       1  UNL1        0.2108
     18 C         141.9448  142.5108  163.6533 C.3     1  UNL1        0.0622
     19 C         140.4753  142.6395  163.9254 C.3     1  UNL1        0.0210
     20 C         139.9717  142.6430  165.3383 C.3     1  UNL1        0.0274
     21 C         140.9376  142.5178  166.4792 C.ar    1  UNL1       -0.0254
     22 C         140.4340  142.5213  167.8921 C.ar    1  UNL1        0.0057
     23 C         141.3999  142.3960  169.0328 C.ar    1  UNL1        0.0681
     24 C         142.8694  142.2673  168.7606 C.ar    1  UNL1        0.0099
     25 C         143.3730  142.2638  167.3477 C.ar    1  UNL1       -0.0038
     26 C         142.4071  142.3890  166.2070 C.ar    1  UNL1       -0.0247
     27 C         142.9107  142.3855  164.7940 C.3     1  UNL1        0.0420
     28 C         140.8963  142.3995  170.4458 C.1     1  UNL1        0.1004
     29 N         140.3928  142.4030  171.8587 N.1     1  UNL1       -0.1908
     30 N         146.9436  142.5450  153.4916 N.pl3   1  UNL1       -0.2187
     31 H         146.3900  142.1631  152.7726 H       1  UNL1        0.1734
     32 C         149.6378  143.7018  152.8563 C.3     1  UNL1        0.1996
     33 S         148.2907  143.1235  153.1739 S.O2    1  UNL1        0.0558
     34 O         148.8661  141.7404  153.0957 O.2     1  UNL1       -0.1544
     35 O         147.7154  144.5065  153.2522 O.2     1  UNL1       -0.1544
@<TRIPOS>BOND
     1    32    33    1
     2    33    34    2
     3    33    35    2
     4    33    30    1
     5    30     1    1
     6     1     2   ar
     7     2     3   ar
     8     3     4   ar
     9     4     5   ar
    10     5     6   ar
    11     5     7    1
    12     7     8    1
    13     7     9    1
    14     9    10    1
    15    10    11    1
    16    11    12    1
    17    12    13    1
    18    13    18    1
    19    18    19    1
    20    19    20    1
    21    20    21    1
    22    21    22   ar
    23    22    23   ar
    24    23    28    1
    25    28    29    3
    26    23    24   ar
    27    24    25   ar
    28    25    26   ar
    29    26    27    1
    30    13    14    1
    31    14    15    1
    32    10    16    1
    33     6     1   ar
    34    15    10    1
    35    16     4    1
    36    27    18    1
    37    26    21   ar
    38    30    31    1
    39     8    17    1
@<TRIPOS>MOLECULE
*****
 35 39 0 0 0
SMALL
GASTEIGER

@<TRIPOS>ATOM
      1 C         142.2635  136.1740  154.3993 C.ar    1  UNL1        0.0644
      2 C         143.4676  135.7882  155.2063 C.ar    1  UNL1        0.0189
      3 C         143.5442  136.1510  156.6597 C.ar    1  UNL1        0.0380
      4 C         142.4165  136.8997  157.3062 C.ar    1  UNL1        0.1365
      5 C         141.2123  137.2855  156.4993 C.ar    1  UNL1        0.0396
      6 C         141.1359  136.9227  155.0458 C.ar    1  UNL1        0.0169
      7 C         140.0847  138.0341  157.1457 C.3     1  UNL1        0.1391
      8 O         138.8806  138.4200  156.3388 O.3     1  UNL1       -0.3798
      9 C         140.1612  138.3970  158.5992 C.3     1  UNL1        0.0740
     10 C         141.3653  138.0111  159.4062 C.3     1  UNL1        0.1384
     11 C         140.2377  138.7598  160.0526 C.3     1  UNL1        0.0574
     12 C         140.3142  139.1226  161.5061 C.3     1  UNL1        0.0757
     13 N         141.5184  138.7368  162.3130 N.3     1  UNL1       -0.2734
     14 C         142.6460  137.9881  161.6666 C.3     1  UNL1        0.0757
     15 C         142.5695  137.6253  160.2131 C.3     1  UNL1        0.0574
     16 O         142.4930  137.2625  158.7596 O.3     1  UNL1       -0.4826
     17 H         138.2510  138.8944  156.9040 H       1  UNL1        0.2108
     18 C         141.5948  139.0996  163.7665 C.3     1  UNL1        0.0622
     19 C         142.9246  139.3839  164.3996 C.3     1  UNL1        0.0210
     20 C         143.0012  139.7467  165.8530 C.3     1  UNL1        0.0274
     21 C         141.7478  139.8253  166.6734 C.ar    1  UNL1       -0.0254
     22 C         141.8243  140.1881  168.1268 C.ar    1  UNL1        0.0057
     23 C         140.5710  140.2666  168.9472 C.ar    1  UNL1        0.0681
     24 C         139.2412  139.9823  168.3141 C.ar    1  UNL1        0.0099
     25 C         139.1647  139.6195  166.8607 C.ar    1  UNL1       -0.0038
     26 C         140.4180  139.5410  166.0404 C.ar    1  UNL1       -0.0247
     27 C         140.3415  139.1781  164.5869 C.3     1  UNL1        0.0420
     28 C         140.6475  140.6295  170.4007 C.1     1  UNL1        0.1004
     29 N         140.7240  140.9922  171.8541 N.1     1  UNL1       -0.1908
     30 N         142.1870  135.8112  152.9459 N.pl3   1  UNL1       -0.2187
     31 H         142.7601  136.2734  152.2923 H       1  UNL1        0.1734
     32 C         140.2876  133.6770  152.0306 C.3     1  UNL1        0.1996
     33 S         141.2373  134.7441  152.4882 S.O2    1  UNL1        0.0558
     34 O         142.1694  133.6910  153.0096 O.2     1  UNL1       -0.1544
     35 O         140.3051  135.7973  151.9668 O.2     1  UNL1       -0.1544
@<TRIPOS>BOND
     1    32    33    1
     2    33    34    2
     3    33    35    2
     4    33    30    1
     5    30     1    1
     6     1     2   ar
     7     2     3   ar
     8     3     4   ar
     9     4     5   ar
    10     5     6   ar
    11     5     7    1
    12     7     8    1
    13     7     9    1
    14     9    10    1
    15    10    11    1
    16    11    12    1
    17    12    13    1
    18    13    18    1
    19    18    19    1
    20    19    20    1
    21    20    21    1
    22    21    22   ar
    23    22    23   ar
    24    23    28    1
    25    28    29    3
    26    23    24   ar
    27    24    25   ar
    28    25    26   ar
    29    26    27    1
    30    13    14    1
    31    14    15    1
    32    10    16    1
    33     6     1   ar
    34    15    10    1
    35    16     4    1
    36    27    18    1
    37    26    21   ar
    38    30    31    1
    39     8    17    1
@<TRIPOS>MOLECULE
*****
 35 39 0 0 0
SMALL
GASTEIGER

@<TRIPOS>ATOM
      1 C         142.4562  140.2411  167.2657 C.ar    1  UNL1        0.0644
      2 C         142.7421  141.7135  167.2848 C.ar    1  UNL1        0.0189
      3 C         142.6266  142.5164  166.0231 C.ar    1  UNL1        0.0380
      4 C         142.2252  141.8470  164.7421 C.ar    1  UNL1        0.1365
      5 C         141.9392  140.3746  164.7230 C.ar    1  UNL1        0.0396
      6 C         142.0547  139.5717  165.9848 C.ar    1  UNL1        0.0169
      7 C         141.5378  139.7051  163.4422 C.3     1  UNL1        0.1391
      8 O         141.2519  138.2328  163.4230 O.3     1  UNL1       -0.3798
      9 C         141.4223  140.5080  162.1804 C.3     1  UNL1        0.0740
     10 C         141.7082  141.9804  162.1995 C.3     1  UNL1        0.1384
     11 C         141.3068  141.3109  160.9186 C.3     1  UNL1        0.0574
     12 C         141.1913  142.1138  159.6569 C.3     1  UNL1        0.0757
     13 N         141.4772  143.5862  159.6761 N.3     1  UNL1       -0.2734
     14 C         141.8787  144.2557  160.9569 C.3     1  UNL1        0.0757
     15 C         141.9942  143.4528  162.2186 C.3     1  UNL1        0.0574
     16 O         142.1097  142.6499  163.4804 O.3     1  UNL1       -0.4826
     17 H         141.0082  137.9623  162.5239 H       1  UNL1        0.2108
     18 C         141.3617  144.3891  158.4143 C.3     1  UNL1        0.0622
     19 C         142.2857  144.1163  157.2645 C.3     1  UNL1        0.0210
     20 C         142.1702  144.9191  156.0028 C.3     1  UNL1        0.0274
     21 C         141.1308  145.9949  155.8907 C.ar    1  UNL1       -0.0254
     22 C         141.0153  146.7977  154.6290 C.ar    1  UNL1        0.0057
     23 C         139.9759  147.8733  154.5170 C.ar    1  UNL1        0.0681
     24 C         139.0520  148.1462  155.6667 C.ar    1  UNL1        0.0099
     25 C         139.1674  147.3433  156.9285 C.ar    1  UNL1       -0.0038
     26 C         140.2068  146.2677  157.0405 C.ar    1  UNL1       -0.0247
     27 C         140.3223  145.4648  158.3023 C.3     1  UNL1        0.0420
     28 C         139.8604  148.6762  153.2551 C.1     1  UNL1        0.1004
     29 N         139.7449  149.4791  151.9934 N.1     1  UNL1       -0.1908
     30 N         142.5717  139.4382  168.5274 N.pl3   1  UNL1       -0.2187
     31 H         143.0271  138.5655  168.5155 H       1  UNL1        0.1734
     32 C         141.4148  140.4918  171.0870 C.3     1  UNL1        0.1996
     33 S         141.9933  139.9651  169.8072 S.O2    1  UNL1        0.0558
     34 O         140.6150  139.8719  169.2227 O.2     1  UNL1       -0.1544
     35 O         143.3715  140.0582  170.3918 O.2     1  UNL1       -0.1544
@<TRIPOS>BOND
     1    32    33    1
     2    33    34    2
     3    33    35    2
     4    33    30    1
     5    30     1    1
     6     1     2   ar
     7     2     3   ar
     8     3     4   ar
     9     4     5   ar
    10     5     6   ar
    11     5     7    1
    12     7     8    1
    13     7     9    1
    14     9    10    1
    15    10    11    1
    16    11    12    1
    17    12    13    1
    18    13    18    1
    19    18    19    1
    20    19    20    1
    21    20    21    1
    22    21    22   ar
    23    22    23   ar
    24    23    28    1
    25    28    29    3
    26    23    24   ar
    27    24    25   ar
    28    25    26   ar
    29    26    27    1
    30    13    14    1
    31    14    15    1
    32    10    16    1
    33     6     1   ar
    34    15    10    1
    35    16     4    1
    36    27    18    1
    37    26    21   ar
    38    30    31    1
    39     8    17    1
@<TRIPOS>MOLECULE
*****
 35 39 0 0 0
SMALL
GASTEIGER

@<TRIPOS>ATOM
      1 C         142.1667  135.5413  154.2637 C.ar    1  UNL1        0.0644
      2 C         143.4939  135.4164  154.9513 C.ar    1  UNL1        0.0189
      3 C         143.7025  136.0423  156.2984 C.ar    1  UNL1        0.0380
      4 C         142.5839  136.7931  156.9580 C.ar    1  UNL1        0.1365
      5 C         141.2567  136.9181  156.2703 C.ar    1  UNL1        0.0396
      6 C         141.0481  136.2921  154.9232 C.ar    1  UNL1        0.0169
      7 C         140.1380  137.6689  156.9298 C.3     1  UNL1        0.1391
      8 O         138.8108  137.7938  156.2421 O.3     1  UNL1       -0.3798
      9 C         140.3466  138.2948  158.2769 C.3     1  UNL1        0.0740
     10 C         141.6739  138.1699  158.9646 C.3     1  UNL1        0.1384
     11 C         140.5552  138.9207  159.6240 C.3     1  UNL1        0.0574
     12 C         140.7639  139.5466  160.9711 C.3     1  UNL1        0.0757
     13 N         142.0911  139.4217  161.6587 N.3     1  UNL1       -0.2734
     14 C         143.2097  138.6708  160.9993 C.3     1  UNL1        0.0757
     15 C         143.0011  138.0450  159.6522 C.3     1  UNL1        0.0574
     16 O         142.7925  137.4190  158.3050 O.3     1  UNL1       -0.4826
     17 H         138.2044  138.3054  156.8002 H       1  UNL1        0.2108
     18 C         142.2997  140.0476  163.0059 C.3     1  UNL1        0.0622
     19 C         143.6811  140.4260  163.4513 C.3     1  UNL1        0.0210
     20 C         143.8898  141.0519  164.7984 C.3     1  UNL1        0.0274
     21 C         142.7169  141.2994  165.7002 C.ar    1  UNL1       -0.0254
     22 C         142.9255  141.9254  167.0472 C.ar    1  UNL1        0.0057
     23 C         141.7526  142.1728  167.9490 C.ar    1  UNL1        0.0681
     24 C         140.3712  141.7944  167.5036 C.ar    1  UNL1        0.0099
     25 C         140.1626  141.1685  166.1565 C.ar    1  UNL1       -0.0038
     26 C         141.3354  140.9210  165.2548 C.ar    1  UNL1       -0.0247
     27 C         141.1268  140.2951  163.9076 C.3     1  UNL1        0.0420
     28 C         141.9612  142.7988  169.2961 C.1     1  UNL1        0.1004
     29 N         142.1698  143.4247  170.6432 N.1     1  UNL1       -0.1908
     30 N         141.9581  134.9154  152.9166 N.pl3   1  UNL1       -0.2187
     31 H         142.2954  135.3641  152.1078 H       1  UNL1        0.1734
     32 C         140.5129  132.2965  152.6870 C.3     1  UNL1        0.1996
     33 S         141.2355  133.6059  152.8018 S.O2    1  UNL1        0.0558
     34 O         140.0766  134.3023  152.1522 O.2     1  UNL1       -0.1544
     35 O         142.3943  132.9095  153.4513 O.2     1  UNL1       -0.1544
@<TRIPOS>BOND
     1    32    33    1
     2    33    34    2
     3    33    35    2
     4    33    30    1
     5    30     1    1
     6     1     2   ar
     7     2     3   ar
     8     3     4   ar
     9     4     5   ar
    10     5     6   ar
    11     5     7    1
    12     7     8    1
    13     7     9    1
    14     9    10    1
    15    10    11    1
    16    11    12    1
    17    12    13    1
    18    13    18    1
    19    18    19    1
    20    19    20    1
    21    20    21    1
    22    21    22   ar
    23    22    23   ar
    24    23    28    1
    25    28    29    3
    26    23    24   ar
    27    24    25   ar
    28    25    26   ar
    29    26    27    1
    30    13    14    1
    31    14    15    1
    32    10    16    1
    33     6     1   ar
    34    15    10    1
    35    16     4    1
    36    27    18    1
    37    26    21   ar
    38    30    31    1
    39     8    17    1
@<TRIPOS>MOLECULE
*****
 35 39 0 0 0
SMALL
GASTEIGER

@<TRIPOS>ATOM
      1 C         140.0900  140.0985  167.9146 C.ar    1  UNL1        0.0644
      2 C         138.9772  139.7857  166.9587 C.ar    1  UNL1        0.0189
      3 C         138.9828  140.3789  165.5810 C.ar    1  UNL1        0.0380
      4 C         140.1014  141.2850  165.1592 C.ar    1  UNL1        0.1365
      5 C         141.2142  141.5979  166.1151 C.ar    1  UNL1        0.0396
      6 C         141.2085  141.0046  167.4928 C.ar    1  UNL1        0.0169
      7 C         142.3327  142.5040  165.6933 C.3     1  UNL1        0.1391
      8 O         143.4456  142.8168  166.6492 O.3     1  UNL1       -0.3798
      9 C         142.3384  143.0972  164.3156 C.3     1  UNL1        0.0740
     10 C         141.2256  142.7844  163.3597 C.3     1  UNL1        0.1384
     11 C         142.3441  143.6905  162.9379 C.3     1  UNL1        0.0574
     12 C         142.3498  144.2837  161.5603 C.3     1  UNL1        0.0757
     13 N         141.2370  143.9709  160.6044 N.3     1  UNL1       -0.2734
     14 C         140.1185  143.0648  161.0261 C.3     1  UNL1        0.0757
     15 C         140.1128  142.4716  162.4038 C.3     1  UNL1        0.0574
     16 O         140.1071  141.8783  163.7815 O.3     1  UNL1       -0.4826
     17 H         144.0812  143.4120  166.2218 H       1  UNL1        0.2108
     18 C         141.2427  144.5641  159.2266 C.3     1  UNL1        0.0622
     19 C         142.2596  144.1135  158.2202 C.3     1  UNL1        0.0210
     20 C         142.2654  144.7068  156.8426 C.3     1  UNL1        0.0274
     21 C         141.2542  145.7507  156.4712 C.ar    1  UNL1       -0.0254
     22 C         141.2599  146.3439  155.0936 C.ar    1  UNL1        0.0057
     23 C         140.2488  147.3877  154.7223 C.ar    1  UNL1        0.0681
     24 C         139.2318  147.8383  155.7287 C.ar    1  UNL1        0.0099
     25 C         139.2261  147.2451  157.1063 C.ar    1  UNL1       -0.0038
     26 C         140.2372  146.2013  157.4776 C.ar    1  UNL1       -0.0247
     27 C         140.2315  145.6080  158.8553 C.3     1  UNL1        0.0420
     28 C         140.2545  147.9810  153.3446 C.1     1  UNL1        0.1004
     29 N         140.2602  148.5743  151.9669 N.1     1  UNL1       -0.1908
     30 N         140.0843  139.5053  169.2922 N.pl3   1  UNL1       -0.2187
     31 H         139.7437  138.5925  169.4337 H       1  UNL1        0.1734
     32 C         141.1108  141.1004  171.6165 C.3     1  UNL1        0.1996
     33 S         140.5976  140.3028  170.4544 S.O2    1  UNL1        0.0558
     34 O         139.3536  141.1405  170.4289 O.2     1  UNL1       -0.1544
     35 O         141.8416  139.4652  170.4799 O.2     1  UNL1       -0.1544
@<TRIPOS>BOND
     1    32    33    1
     2    33    34    2
     3    33    35    2
     4    33    30    1
     5    30     1    1
     6     1     2   ar
     7     2     3   ar
     8     3     4   ar
     9     4     5   ar
    10     5     6   ar
    11     5     7    1
    12     7     8    1
    13     7     9    1
    14     9    10    1
    15    10    11    1
    16    11    12    1
    17    12    13    1
    18    13    18    1
    19    18    19    1
    20    19    20    1
    21    20    21    1
    22    21    22   ar
    23    22    23   ar
    24    23    28    1
    25    28    29    3
    26    23    24   ar
    27    24    25   ar
    28    25    26   ar
    29    26    27    1
    30    13    14    1
    31    14    15    1
    32    10    16    1
    33     6     1   ar
    34    15    10    1
    35    16     4    1
    36    27    18    1
    37    26    21   ar
    38    30    31    1
    39     8    17    1
@<TRIPOS>MOLECULE
*****
 35 39 0 0 0
SMALL
GASTEIGER

@<TRIPOS>ATOM
      1 C         141.9110  137.6173  154.8580 C.ar    1  UNL1        0.0644
      2 C         140.7011  137.2027  155.6417 C.ar    1  UNL1        0.0189
      3 C         140.5677  137.6008  157.0817 C.ar    1  UNL1        0.0380
      4 C         141.6441  138.4136  157.7381 C.ar    1  UNL1        0.1365
      5 C         142.8540  138.8282  156.9543 C.ar    1  UNL1        0.0396
      6 C         142.9875  138.4300  155.5143 C.ar    1  UNL1        0.0169
      7 C         143.9304  139.6409  157.6106 C.3     1  UNL1        0.1391
      8 O         145.1403  140.0556  156.8269 O.3     1  UNL1       -0.3798
      9 C         143.7970  140.0391  159.0507 C.3     1  UNL1        0.0740
     10 C         142.5871  139.6245  159.8344 C.3     1  UNL1        0.1384
     11 C         143.6635  140.4372  160.4907 C.3     1  UNL1        0.0574
     12 C         143.5300  140.8353  161.9307 C.3     1  UNL1        0.0757
     13 N         142.3201  140.4207  162.7144 N.3     1  UNL1       -0.2734
     14 C         141.2437  139.6080  162.0581 C.3     1  UNL1        0.0757
     15 C         141.3772  139.2098  160.6181 C.3     1  UNL1        0.0574
     16 O         141.5106  138.8117  159.1781 O.3     1  UNL1       -0.4826
     17 H         145.7330  140.5712  157.3958 H       1  UNL1        0.2108
     18 C         142.1867  140.8189  164.1545 C.3     1  UNL1        0.0622
     19 C         143.1304  141.8241  164.7452 C.3     1  UNL1        0.0210
     20 C         142.9970  142.2223  166.1852 C.3     1  UNL1        0.0274
     21 C         141.9199  141.6152  167.0345 C.ar    1  UNL1       -0.0254
     22 C         141.7865  142.0134  168.4745 C.ar    1  UNL1        0.0057
     23 C         140.7094  141.4063  169.3238 C.ar    1  UNL1        0.0681
     24 C         139.7657  140.4010  168.7331 C.ar    1  UNL1        0.0099
     25 C         139.8991  140.0029  167.2931 C.ar    1  UNL1       -0.0038
     26 C         140.9762  140.6099  166.4438 C.ar    1  UNL1       -0.0247
     27 C         141.1096  140.2118  165.0038 C.3     1  UNL1        0.0420
     28 C         140.5760  141.8044  170.7639 C.1     1  UNL1        0.1004
     29 N         140.4425  142.2026  172.2039 N.1     1  UNL1       -0.1908
     30 N         142.0445  137.2192  153.4180 N.pl3   1  UNL1       -0.2187
     31 H         142.4508  137.8403  152.7712 H       1  UNL1        0.1734
     32 C         141.0734  134.5302  152.5089 C.3     1  UNL1        0.1996
     33 S         141.5589  135.8747  152.9634 S.O2    1  UNL1        0.0558
     34 O         140.4830  136.5367  152.1547 O.2     1  UNL1       -0.1544
     35 O         142.6349  135.2126  153.7721 O.2     1  UNL1       -0.1544
@<TRIPOS>BOND
     1    32    33    1
     2    33    34    2
     3    33    35    2
     4    33    30    1
     5    30     1    1
     6     1     2   ar
     7     2     3   ar
     8     3     4   ar
     9     4     5   ar
    10     5     6   ar
    11     5     7    1
    12     7     8    1
    13     7     9    1
    14     9    10    1
    15    10    11    1
    16    11    12    1
    17    12    13    1
    18    13    18    1
    19    18    19    1
    20    19    20    1
    21    20    21    1
    22    21    22   ar
    23    22    23   ar
    24    23    28    1
    25    28    29    3
    26    23    24   ar
    27    24    25   ar
    28    25    26   ar
    29    26    27    1
    30    13    14    1
    31    14    15    1
    32    10    16    1
    33     6     1   ar
    34    15    10    1
    35    16     4    1
    36    27    18    1
    37    26    21   ar
    38    30    31    1
    39     8    17    1
@<TRIPOS>MOLECULE
*****
 35 39 0 0 0
SMALL
GASTEIGER

@<TRIPOS>ATOM
      1 C         143.1098  141.7600  167.1996 C.ar    1  UNL1        0.0644
      2 C         142.4417  140.4175  167.2344 C.ar    1  UNL1        0.0189
      3 C         142.2823  139.6261  165.9702 C.ar    1  UNL1        0.0380
      4 C         142.7911  140.1772  164.6711 C.ar    1  UNL1        0.1365
      5 C         143.4592  141.5198  164.6363 C.ar    1  UNL1        0.0396
      6 C         143.6186  142.3112  165.9006 C.ar    1  UNL1        0.0169
      7 C         143.9679  142.0709  163.3374 C.3     1  UNL1        0.1391
      8 O         144.6361  143.4134  163.3026 O.3     1  UNL1       -0.3798
      9 C         143.8086  141.2795  162.0731 C.3     1  UNL1        0.0740
     10 C         143.1404  139.9369  162.1079 C.3     1  UNL1        0.1384
     11 C         143.6492  140.4881  160.8089 C.3     1  UNL1        0.0574
     12 C         143.4898  139.6967  159.5447 C.3     1  UNL1        0.0757
     13 N         142.8217  138.3541  159.5795 N.3     1  UNL1       -0.2734
     14 C         142.3129  137.8030  160.8785 C.3     1  UNL1        0.0757
     15 C         142.4723  138.5944  162.1427 C.3     1  UNL1        0.0574
     16 O         142.6317  139.3858  163.4070 O.3     1  UNL1       -0.4826
     17 H         144.9030  143.6182  162.3928 H       1  UNL1        0.2108
     18 C         142.6623  137.5627  158.3152 C.3     1  UNL1        0.0622
     19 C         142.1353  138.2253  157.0770 C.3     1  UNL1        0.0210
     20 C         141.9759  137.4340  155.8128 C.3     1  UNL1        0.0274
     21 C         142.3436  135.9799  155.7867 C.ar    1  UNL1       -0.0254
     22 C         142.1842  135.1886  154.5225 C.ar    1  UNL1        0.0057
     23 C         142.5518  133.7346  154.4964 C.ar    1  UNL1        0.0681
     24 C         143.0788  133.0720  155.7346 C.ar    1  UNL1        0.0099
     25 C         143.2382  133.8633  156.9989 C.ar    1  UNL1       -0.0038
     26 C         142.8706  135.3173  157.0249 C.ar    1  UNL1       -0.0247
     27 C         143.0299  136.1087  158.2892 C.3     1  UNL1        0.0420
     28 C         142.3924  132.9432  153.2321 C.1     1  UNL1        0.1004
     29 N         142.2331  132.1518  151.9679 N.1     1  UNL1       -0.1908
     30 N         143.2692  142.5515  168.4638 N.pl3   1  UNL1       -0.2187
     31 H         143.8443  143.3504  168.4752 H       1  UNL1        0.1734
     32 C         141.8355  141.6997  170.9576 C.3     1  UNL1        0.1996
     33 S         142.5523  142.1255  169.7107 S.O2    1  UNL1        0.0558
     34 O         141.3998  143.0161  169.3523 O.2     1  UNL1       -0.1544
     35 O         143.7048  141.2350  170.0692 O.2     1  UNL1       -0.1544
@<TRIPOS>BOND
     1    32    33    1
     2    33    34    2
     3    33    35    2
     4    33    30    1
     5    30     1    1
     6     1     2   ar
     7     2     3   ar
     8     3     4   ar
     9     4     5   ar
    10     5     6   ar
    11     5     7    1
    12     7     8    1
    13     7     9    1
    14     9    10    1
    15    10    11    1
    16    11    12    1
    17    12    13    1
    18    13    18    1
    19    18    19    1
    20    19    20    1
    21    20    21    1
    22    21    22   ar
    23    22    23   ar
    24    23    28    1
    25    28    29    3
    26    23    24   ar
    27    24    25   ar
    28    25    26   ar
    29    26    27    1
    30    13    14    1
    31    14    15    1
    32    10    16    1
    33     6     1   ar
    34    15    10    1
    35    16     4    1
    36    27    18    1
    37    26    21   ar
    38    30    31    1
    39     8    17    1
@<TRIPOS>MOLECULE
*****
 35 39 0 0 0
SMALL
GASTEIGER

@<TRIPOS>ATOM
      1 C         141.5159  141.8313  168.3206 C.ar    1  UNL1        0.0644
      2 C         140.4783  140.7658  168.1259 C.ar    1  UNL1        0.0189
      3 C         140.3307  140.0976  166.7910 C.ar    1  UNL1        0.0380
      4 C         141.2207  140.4951  165.6509 C.ar    1  UNL1        0.1365
      5 C         142.2583  141.5607  165.8456 C.ar    1  UNL1        0.0396
      6 C         142.4059  142.2288  167.1805 C.ar    1  UNL1        0.0169
      7 C         143.1483  141.9581  164.7055 C.3     1  UNL1        0.1391
      8 O         144.1859  143.0237  164.9002 O.3     1  UNL1       -0.3798
      9 C         143.0008  141.2900  163.3706 C.3     1  UNL1        0.0740
     10 C         141.9631  140.2244  163.1759 C.3     1  UNL1        0.1384
     11 C         142.8532  140.6218  162.0358 C.3     1  UNL1        0.0574
     12 C         142.7056  139.9537  160.7009 C.3     1  UNL1        0.0757
     13 N         141.6680  138.8881  160.5062 N.3     1  UNL1       -0.2734
     14 C         140.7780  138.4907  161.6463 C.3     1  UNL1        0.0757
     15 C         140.9255  139.1588  162.9811 C.3     1  UNL1        0.0574
     16 O         141.0731  139.8269  164.3160 O.3     1  UNL1       -0.4826
     17 H         144.6709  143.1581  164.0710 H       1  UNL1        0.2108
     18 C         141.5204  138.2200  159.1713 C.3     1  UNL1        0.0622
     19 C         140.2764  138.4314  158.3603 C.3     1  UNL1        0.0210
     20 C         140.1288  137.7633  157.0255 C.3     1  UNL1        0.0274
     21 C         141.2252  136.8838  156.5016 C.ar    1  UNL1       -0.0254
     22 C         141.0776  136.2157  155.1667 C.ar    1  UNL1        0.0057
     23 C         142.1740  135.3363  154.6429 C.ar    1  UNL1        0.0681
     24 C         143.4180  135.1249  155.4540 C.ar    1  UNL1        0.0099
     25 C         143.5656  135.7930  156.7888 C.ar    1  UNL1       -0.0038
     26 C         142.4692  136.6724  157.3126 C.ar    1  UNL1       -0.0247
     27 C         142.6168  137.3406  158.6475 C.3     1  UNL1        0.0420
     28 C         142.0265  134.6681  153.3080 C.1     1  UNL1        0.1004
     29 N         141.8789  134.0000  151.9732 N.1     1  UNL1       -0.1908
     30 N         141.6635  142.4995  169.6554 N.pl3   1  UNL1       -0.2187
     31 H         142.5603  142.6686  170.0247 H       1  UNL1        0.1734
     32 C         139.2259  143.3203  171.1997 C.3     1  UNL1        0.1996
     33 S         140.4447  142.9099  170.4276 S.O2    1  UNL1        0.0558
     34 O         140.0559  143.8419  169.3185 O.2     1  UNL1       -0.1544
     35 O         140.8335  141.9779  171.5367 O.2     1  UNL1       -0.1544
@<TRIPOS>BOND
     1    32    33    1
     2    33    34    2
     3    33    35    2
     4    33    30    1
     5    30     1    1
     6     1     2   ar
     7     2     3   ar
     8     3     4   ar
     9     4     5   ar
    10     5     6   ar
    11     5     7    1
    12     7     8    1
    13     7     9    1
    14     9    10    1
    15    10    11    1
    16    11    12    1
    17    12    13    1
    18    13    18    1
    19    18    19    1
    20    19    20    1
    21    20    21    1
    22    21    22   ar
    23    22    23   ar
    24    23    28    1
    25    28    29    3
    26    23    24   ar
    27    24    25   ar
    28    25    26   ar
    29    26    27    1
    30    13    14    1
    31    14    15    1
    32    10    16    1
    33     6     1   ar
    34    15    10    1
    35    16     4    1
    36    27    18    1
    37    26    21   ar
    38    30    31    1
    39     8    17    1
