@<TRIPOS>MOLECULE
*****
 31 35 0 0 0
SMALL
GASTEIGER

@<TRIPOS>ATOM
      1 C         140.3265  145.6311  161.8762 C.3     1  UNL1        0.0730
      2 C         142.6382  138.5744  170.2503 C.3     1  UNL1        0.0950
      3 C         142.3283  139.5202  169.1280 C.ar    1  UNL1        0.2062
      4 N         141.1435  140.4368  169.0490 N.ar    1  UNL1       -0.2121
      5 C         141.2319  141.1984  167.7598 C.ar    1  UNL1        0.1182
      6 C         140.3438  142.2404  167.1468 C.ar    1  UNL1        0.0178
      7 C         140.6953  142.8365  165.8159 C.ar    1  UNL1       -0.0230
      8 C         141.9346  142.3908  165.0982 C.ar    1  UNL1       -0.0216
      9 C         142.8227  141.3489  165.7112 C.ar    1  UNL1        0.0346
     10 C         142.4713  140.7527  167.0421 C.ar    1  UNL1        0.1640
     11 O         143.1489  139.7155  167.8877 O.2     1  UNL1       -0.4384
     12 C         142.4652  142.8522  163.7732 C.3     1  UNL1        0.0434
     13 C         141.8873  143.8735  162.8387 C.3     1  UNL1        0.0768
     14 N         140.6363  144.6854  162.9985 N.3     1  UNL1       -0.2720
     15 C         139.6540  144.6767  164.1321 C.3     1  UNL1        0.0768
     16 C         139.6803  143.8539  165.3860 C.3     1  UNL1        0.0434
     17 C         140.8835  145.3780  160.5066 C.3     1  UNL1        0.0294
     18 C         140.0486  144.6794  159.4746 C.3     1  UNL1        0.0666
     19 S         139.8570  143.1935  159.5455 S.3     1  UNL1       -0.0756
     20 C         139.1078  142.5879  160.6953 C.ar    1  UNL1        0.1932
     21 N         137.7974  143.0683  161.2447 N.ar    1  UNL1       -0.1221
     22 N         137.4172  142.1729  162.3865 N.ar    1  UNL1       -0.1282
     23 C         138.4927  141.1391  162.5427 C.ar    1  UNL1        0.1683
     24 N         139.5376  141.3955  161.4975 N.ar    1  UNL1       -0.2884
     25 C         140.7919  140.5993  161.2908 C.3     1  UNL1        0.1340
     26 C         138.5188  140.0414  163.5648 C.ar    1  UNL1        0.0551
     27 C         138.1938  140.3430  164.9977 C.ar    1  UNL1        0.0062
     28 C         138.2199  139.2454  166.0198 C.ar    1  UNL1        0.0208
     29 C         138.5709  137.8462  165.6089 C.ar    1  UNL1        0.0989
     30 N         138.8959  137.5446  164.1759 N.ar    1  UNL1       -0.2422
     31 C         138.8698  138.6422  163.1539 C.ar    1  UNL1        0.1019
@<TRIPOS>BOND
     1     2     3    1
     2     3     4   ar
     3     4     5   ar
     4     5     6   ar
     5     6     7   ar
     6     7     8   ar
     7     8     9   ar
     8     9    10   ar
     9    10    11   ar
    10     8    12    1
    11    12    13    1
    12    13    14    1
    13    14     1    1
    14     1    17    1
    15    17    18    1
    16    18    19    1
    17    19    20    1
    18    20    21   ar
    19    21    22   ar
    20    22    23   ar
    21    23    26    1
    22    26    27   ar
    23    27    28   ar
    24    28    29   ar
    25    29    30   ar
    26    30    31   ar
    27    23    24   ar
    28    24    25    1
    29    14    15    1
    30    15    16    1
    31    11     3   ar
    32    24    20   ar
    33    10     5   ar
    34    31    26   ar
    35    16     7    1
@<TRIPOS>MOLECULE
*****
 31 35 0 0 0
SMALL
GASTEIGER

@<TRIPOS>ATOM
      1 C         140.3135  145.6825  162.1005 C.3     1  UNL1        0.0730
      2 C         142.6449  138.4285  170.2987 C.3     1  UNL1        0.0950
      3 C         142.3324  139.4006  169.2000 C.ar    1  UNL1        0.2062
      4 N         143.1269  139.5954  167.9426 N.ar    1  UNL1       -0.2121
      5 C         142.4561  140.6639  167.1313 C.ar    1  UNL1        0.1182
      6 C         142.7901  141.2730  165.8018 C.ar    1  UNL1        0.0178
      7 C         141.9149  142.3478  165.2282 C.ar    1  UNL1       -0.0230
      8 C         140.7059  142.8134  165.9841 C.ar    1  UNL1       -0.0216
      9 C         140.3719  142.2044  167.3135 C.ar    1  UNL1        0.0346
     10 C         141.2471  141.1296  167.8872 C.ar    1  UNL1        0.1640
     11 O         141.1706  140.3488  169.1657 O.2     1  UNL1       -0.4384
     12 C         139.7078  143.8639  165.5964 C.3     1  UNL1        0.0434
     13 C         139.6722  144.7081  164.3569 C.3     1  UNL1        0.0768
     14 N         140.6259  144.7103  163.1993 N.3     1  UNL1       -0.2720
     15 C         141.8508  143.8690  162.9949 C.3     1  UNL1        0.0768
     16 C         142.4245  142.8175  163.8979 C.3     1  UNL1        0.0434
     17 C         140.8879  145.4759  160.7303 C.3     1  UNL1        0.0294
     18 C         140.0337  144.9055  159.6371 C.3     1  UNL1        0.0666
     19 S         139.8387  143.4218  159.5345 S.3     1  UNL1       -0.0756
     20 C         139.1294  142.6812  160.6292 C.ar    1  UNL1        0.1932
     21 N         137.7880  143.0288  161.2034 N.ar    1  UNL1       -0.1221
     22 N         137.4665  142.0254  162.2710 N.ar    1  UNL1       -0.1282
     23 C         138.6093  141.0575  162.3566 C.ar    1  UNL1        0.1683
     24 N         139.6371  141.4629  161.3420 N.ar    1  UNL1       -0.2884
     25 C         140.9431  140.7712  161.0852 C.3     1  UNL1        0.1340
     26 C         138.7072  139.8895  163.2926 C.ar    1  UNL1        0.0551
     27 C         138.9365  140.1191  164.7571 C.ar    1  UNL1        0.0062
     28 C         139.0344  138.9510  165.6931 C.ar    1  UNL1        0.0208
     29 C         138.9031  137.5534  165.1646 C.ar    1  UNL1        0.0989
     30 N         138.6738  137.3238  163.7001 N.ar    1  UNL1       -0.2422
     31 C         138.5759  138.4919  162.7641 C.ar    1  UNL1        0.1019
@<TRIPOS>BOND
     1     2     3    1
     2     3     4   ar
     3     4     5   ar
     4     5     6   ar
     5     6     7   ar
     6     7     8   ar
     7     8     9   ar
     8     9    10   ar
     9    10    11   ar
    10     8    12    1
    11    12    13    1
    12    13    14    1
    13    14     1    1
    14     1    17    1
    15    17    18    1
    16    18    19    1
    17    19    20    1
    18    20    21   ar
    19    21    22   ar
    20    22    23   ar
    21    23    26    1
    22    26    27   ar
    23    27    28   ar
    24    28    29   ar
    25    29    30   ar
    26    30    31   ar
    27    23    24   ar
    28    24    25    1
    29    14    15    1
    30    15    16    1
    31    11     3   ar
    32    24    20   ar
    33    10     5   ar
    34    31    26   ar
    35    16     7    1
@<TRIPOS>MOLECULE
*****
 31 35 0 0 0
SMALL
GASTEIGER

@<TRIPOS>ATOM
      1 C         143.9231  138.0001  161.4091 C.3     1  UNL1        0.0730
      2 C         139.7958  142.8052  170.6365 C.3     1  UNL1        0.0950
      3 C         140.3489  142.1612  169.3998 C.ar    1  UNL1        0.2062
      4 N         141.5512  142.6202  168.6291 N.ar    1  UNL1       -0.2121
      5 C         141.7422  141.6879  167.4697 C.ar    1  UNL1        0.1182
      6 C         142.7633  141.6478  166.3716 C.ar    1  UNL1        0.0178
      7 C         142.7002  140.5724  165.3277 C.ar    1  UNL1       -0.0230
      8 C         141.6162  139.5372  165.3820 C.ar    1  UNL1       -0.0216
      9 C         140.5951  139.5772  166.4800 C.ar    1  UNL1        0.0346
     10 C         140.6581  140.6526  167.5239 C.ar    1  UNL1        0.1640
     11 O         139.7970  140.9452  168.7168 O.2     1  UNL1       -0.4384
     12 C         141.3727  138.3882  164.4489 C.3     1  UNL1        0.0434
     13 C         142.1533  137.9908  163.2311 C.3     1  UNL1        0.0768
     14 N         143.3699  138.6441  162.6458 N.3     1  UNL1       -0.2720
     15 C         144.1067  139.8562  163.1335 C.3     1  UNL1        0.0768
     16 C         143.8087  140.7144  164.3271 C.3     1  UNL1        0.0434
     17 C         142.9977  137.5682  160.3103 C.3     1  UNL1        0.0294
     18 C         142.3938  138.5901  159.3933 C.3     1  UNL1        0.0666
     19 S         140.9028  138.7094  159.2815 S.3     1  UNL1       -0.0756
     20 C         140.1048  139.2451  160.4332 C.ar    1  UNL1        0.1932
     21 N         139.1514  138.4612  161.2855 N.ar    1  UNL1       -0.1221
     22 N         138.5774  139.3903  162.3138 N.ar    1  UNL1       -0.1282
     23 C         139.1761  140.7484  162.0969 C.ar    1  UNL1        0.1683
     24 N         140.1201  140.6587  160.9346 N.ar    1  UNL1       -0.2884
     25 C         140.9361  141.7848  160.3726 C.3     1  UNL1        0.1340
     26 C         138.8825  141.9800  162.9012 C.ar    1  UNL1        0.0551
     27 C         139.5529  142.1877  164.2269 C.ar    1  UNL1        0.0062
     28 C         139.2592  143.4193  165.0311 C.ar    1  UNL1        0.0208
     29 C         138.2951  144.4433  164.5097 C.ar    1  UNL1        0.0989
     30 N         137.6247  144.2357  163.1840 N.ar    1  UNL1       -0.2422
     31 C         137.9184  143.0041  162.3798 C.ar    1  UNL1        0.1019
@<TRIPOS>BOND
     1     2     3    1
     2     3     4   ar
     3     4     5   ar
     4     5     6   ar
     5     6     7   ar
     6     7     8   ar
     7     8     9   ar
     8     9    10   ar
     9    10    11   ar
    10     8    12    1
    11    12    13    1
    12    13    14    1
    13    14     1    1
    14     1    17    1
    15    17    18    1
    16    18    19    1
    17    19    20    1
    18    20    21   ar
    19    21    22   ar
    20    22    23   ar
    21    23    26    1
    22    26    27   ar
    23    27    28   ar
    24    28    29   ar
    25    29    30   ar
    26    30    31   ar
    27    23    24   ar
    28    24    25    1
    29    14    15    1
    30    15    16    1
    31    11     3   ar
    32    24    20   ar
    33    10     5   ar
    34    31    26   ar
    35    16     7    1
@<TRIPOS>MOLECULE
*****
 31 35 0 0 0
SMALL
GASTEIGER

@<TRIPOS>ATOM
      1 C         138.5877  138.9182  160.4384 C.3     1  UNL1        0.0730
      2 C         142.8937  139.9356  170.7190 C.3     1  UNL1        0.0950
      3 C         142.3166  139.7992  169.3412 C.ar    1  UNL1        0.2062
      4 N         142.9743  139.1276  168.1723 N.ar    1  UNL1       -0.2121
      5 C         142.0447  139.2238  166.9991 C.ar    1  UNL1        0.1182
      6 C         142.1611  138.7402  165.5839 C.ar    1  UNL1        0.0178
      7 C         141.0451  138.9877  164.6126 C.ar    1  UNL1       -0.0230
      8 C         139.8129  139.7188  165.0564 C.ar    1  UNL1       -0.0216
      9 C         139.6965  140.2024  166.4715 C.ar    1  UNL1        0.0346
     10 C         140.8124  139.9550  167.4429 C.ar    1  UNL1        0.1640
     11 O         140.9805  140.3106  168.8904 O.2     1  UNL1       -0.4384
     12 C         138.5934  140.0680  164.2559 C.3     1  UNL1        0.0434
     13 C         138.3050  139.7724  162.8138 C.3     1  UNL1        0.0768
     14 N         139.1648  139.0545  161.8162 N.3     1  UNL1       -0.2720
     15 C         140.5255  138.4549  162.0142 C.3     1  UNL1        0.0768
     16 C         141.3623  138.4252  163.2587 C.3     1  UNL1        0.0434
     17 C         137.7755  140.0344  159.8515 C.3     1  UNL1        0.0294
     18 C         138.4132  141.0097  158.9069 C.3     1  UNL1        0.0666
     19 S         138.4774  142.4655  159.2624 S.3     1  UNL1       -0.0756
     20 C         138.9737  142.8863  160.6140 C.ar    1  UNL1        0.1932
     21 N         138.1365  143.4463  161.7255 N.ar    1  UNL1       -0.1221
     22 N         139.0396  143.7271  162.8898 N.ar    1  UNL1       -0.1282
     23 C         140.4349  143.3405  162.4979 C.ar    1  UNL1        0.1683
     24 N         140.3942  142.8209  161.0913 N.ar    1  UNL1       -0.2884
     25 C         141.5679  142.3232  160.3009 C.3     1  UNL1        0.1340
     26 C         141.6565  143.4537  163.3609 C.ar    1  UNL1        0.0551
     27 C         141.9298  142.4203  164.4132 C.ar    1  UNL1        0.0062
     28 C         143.1514  142.5335  165.2762 C.ar    1  UNL1        0.0208
     29 C         144.0997  143.6801  165.0871 C.ar    1  UNL1        0.0989
     30 N         143.8264  144.7136  164.0348 N.ar    1  UNL1       -0.2422
     31 C         142.6048  144.6004  163.1718 C.ar    1  UNL1        0.1019
@<TRIPOS>BOND
     1     2     3    1
     2     3     4   ar
     3     4     5   ar
     4     5     6   ar
     5     6     7   ar
     6     7     8   ar
     7     8     9   ar
     8     9    10   ar
     9    10    11   ar
    10     8    12    1
    11    12    13    1
    12    13    14    1
    13    14     1    1
    14     1    17    1
    15    17    18    1
    16    18    19    1
    17    19    20    1
    18    20    21   ar
    19    21    22   ar
    20    22    23   ar
    21    23    26    1
    22    26    27   ar
    23    27    28   ar
    24    28    29   ar
    25    29    30   ar
    26    30    31   ar
    27    23    24   ar
    28    24    25    1
    29    14    15    1
    30    15    16    1
    31    11     3   ar
    32    24    20   ar
    33    10     5   ar
    34    31    26   ar
    35    16     7    1
@<TRIPOS>MOLECULE
*****
 31 35 0 0 0
SMALL
GASTEIGER

@<TRIPOS>ATOM
      1 C         138.6925  138.0460  162.4933 C.3     1  UNL1        0.0730
      2 C         143.2902  143.5519  171.0848 C.3     1  UNL1        0.0950
      3 C         142.6740  142.8140  169.9334 C.ar    1  UNL1        0.2062
      4 N         143.2068  141.5619  169.3020 N.ar    1  UNL1       -0.2121
      5 C         142.2789  141.1728  168.1896 C.ar    1  UNL1        0.1182
      6 C         142.2984  140.0280  167.2205 C.ar    1  UNL1        0.0178
      7 C         141.2116  139.8947  166.1952 C.ar    1  UNL1       -0.0230
      8 C         140.1054  140.9061  166.1391 C.ar    1  UNL1       -0.0216
      9 C         140.0859  142.0509  167.1081 C.ar    1  UNL1        0.0346
     10 C         141.1727  142.1842  168.1334 C.ar    1  UNL1        0.1640
     11 O         141.4169  143.1986  169.2111 O.2     1  UNL1       -0.4384
     12 C         138.9339  140.9599  165.2038 C.3     1  UNL1        0.0434
     13 C         138.5793  140.0153  164.0937 C.3     1  UNL1        0.0768
     14 N         139.3086  138.7839  163.6448 N.3     1  UNL1       -0.2720
     15 C         140.5727  138.1928  164.1950 C.3     1  UNL1        0.0768
     16 C         141.4196  138.6871  165.3300 C.3     1  UNL1        0.0434
     17 C         137.7626  138.7591  161.5568 C.3     1  UNL1        0.0294
     18 C         138.2443  139.1852  160.2017 C.3     1  UNL1        0.0666
     19 S         138.1749  140.6290  159.8009 S.3     1  UNL1       -0.0756
     20 C         138.7591  141.6839  160.6930 C.ar    1  UNL1        0.1932
     21 N         138.0258  142.8621  161.2624 N.ar    1  UNL1       -0.1221
     22 N         138.9925  143.6522  162.0937 N.ar    1  UNL1       -0.1282
     23 C         140.3233  142.9624  162.0381 C.ar    1  UNL1        0.1683
     24 N         140.1791  141.7459  161.1724 N.ar    1  UNL1       -0.2884
     25 C         141.2643  140.7638  160.8438 C.3     1  UNL1        0.1340
     26 C         141.5781  143.4103  162.7271 C.ar    1  UNL1        0.0551
     27 C         141.9443  142.8387  164.0647 C.ar    1  UNL1        0.0062
     28 C         143.1991  143.2867  164.7538 C.ar    1  UNL1        0.0208
     29 C         144.0877  144.3063  164.1053 C.ar    1  UNL1        0.0989
     30 N         143.7216  144.8779  162.7677 N.ar    1  UNL1       -0.2422
     31 C         142.4668  144.4300  162.0787 C.ar    1  UNL1        0.1019
@<TRIPOS>BOND
     1     2     3    1
     2     3     4   ar
     3     4     5   ar
     4     5     6   ar
     5     6     7   ar
     6     7     8   ar
     7     8     9   ar
     8     9    10   ar
     9    10    11   ar
    10     8    12    1
    11    12    13    1
    12    13    14    1
    13    14     1    1
    14     1    17    1
    15    17    18    1
    16    18    19    1
    17    19    20    1
    18    20    21   ar
    19    21    22   ar
    20    22    23   ar
    21    23    26    1
    22    26    27   ar
    23    27    28   ar
    24    28    29   ar
    25    29    30   ar
    26    30    31   ar
    27    23    24   ar
    28    24    25    1
    29    14    15    1
    30    15    16    1
    31    11     3   ar
    32    24    20   ar
    33    10     5   ar
    34    31    26   ar
    35    16     7    1
@<TRIPOS>MOLECULE
*****
 31 35 0 0 0
SMALL
GASTEIGER

@<TRIPOS>ATOM
      1 C         138.4158  141.9847  159.9345 C.3     1  UNL1        0.0730
      2 C         140.5352  139.8535  170.7156 C.3     1  UNL1        0.0950
      3 C         140.2512  140.1391  169.2707 C.ar    1  UNL1        0.2062
      4 N         141.0322  141.0637  168.3846 N.ar    1  UNL1       -0.2121
      5 C         140.4000  141.0463  167.0245 C.ar    1  UNL1        0.1182
      6 C         140.7399  141.7613  165.7505 C.ar    1  UNL1        0.0178
      7 C         139.9080  141.5410  164.5218 C.ar    1  UNL1       -0.0230
      8 C         138.7363  140.6057  164.5674 C.ar    1  UNL1       -0.0216
      9 C         138.3963  139.8907  165.8413 C.ar    1  UNL1        0.0346
     10 C         139.2282  140.1109  167.0700 C.ar    1  UNL1        0.1640
     11 O         139.1363  139.5503  168.4582 O.2     1  UNL1       -0.4384
     12 C         137.7835  140.2458  163.4660 C.3     1  UNL1        0.0434
     13 C         137.7674  140.7325  162.0472 C.3     1  UNL1        0.0768
     14 N         138.6999  141.6990  161.3794 N.3     1  UNL1       -0.2720
     15 C         139.8789  142.4178  161.9653 C.3     1  UNL1        0.0768
     16 C         140.4165  142.3475  163.3639 C.3     1  UNL1        0.0434
     17 C         139.3672  141.5122  158.8753 C.3     1  UNL1        0.0294
     18 C         139.0968  140.2325  158.1410 C.3     1  UNL1        0.0666
     19 S         139.8888  139.0005  158.4643 S.3     1  UNL1       -0.0756
     20 C         140.1296  138.6175  159.8945 C.ar    1  UNL1        0.1932
     21 N         139.2268  137.7745  160.7455 N.ar    1  UNL1       -0.1221
     22 N         139.8546  137.6463  162.1017 N.ar    1  UNL1       -0.1282
     23 C         141.1455  138.4102  162.0889 C.ar    1  UNL1        0.1683
     24 N         141.3155  139.0105  160.7248 N.ar    1  UNL1       -0.2884
     25 C         142.4688  139.8553  160.2708 C.3     1  UNL1        0.1340
     26 C         142.0990  138.5494  163.2385 C.ar    1  UNL1        0.0551
     27 C         141.6414  138.2434  164.6338 C.ar    1  UNL1        0.0062
     28 C         142.5949  138.3826  165.7833 C.ar    1  UNL1        0.0208
     29 C         144.0060  138.8277  165.5376 C.ar    1  UNL1        0.0989
     30 N         144.4637  139.1337  164.1423 N.ar    1  UNL1       -0.2422
     31 C         143.5102  138.9945  162.9928 C.ar    1  UNL1        0.1019
@<TRIPOS>BOND
     1     2     3    1
     2     3     4   ar
     3     4     5   ar
     4     5     6   ar
     5     6     7   ar
     6     7     8   ar
     7     8     9   ar
     8     9    10   ar
     9    10    11   ar
    10     8    12    1
    11    12    13    1
    12    13    14    1
    13    14     1    1
    14     1    17    1
    15    17    18    1
    16    18    19    1
    17    19    20    1
    18    20    21   ar
    19    21    22   ar
    20    22    23   ar
    21    23    26    1
    22    26    27   ar
    23    27    28   ar
    24    28    29   ar
    25    29    30   ar
    26    30    31   ar
    27    23    24   ar
    28    24    25    1
    29    14    15    1
    30    15    16    1
    31    11     3   ar
    32    24    20   ar
    33    10     5   ar
    34    31    26   ar
    35    16     7    1
@<TRIPOS>MOLECULE
*****
 31 35 0 0 0
SMALL
GASTEIGER

@<TRIPOS>ATOM
      1 C         142.6159  142.6825  170.1225 C.3     1  UNL1        0.0730
      2 C         139.5487  143.3410  159.3788 C.3     1  UNL1        0.0950
      3 C         139.9598  143.2527  160.8187 C.ar    1  UNL1        0.2062
      4 N         139.0605  143.4359  162.0052 N.ar    1  UNL1       -0.2121
      5 C         139.8872  143.2622  163.2446 C.ar    1  UNL1        0.1182
      6 C         139.5381  143.3311  164.7018 C.ar    1  UNL1        0.0178
      7 C         140.5993  143.1093  165.7386 C.ar    1  UNL1       -0.0230
      8 C         142.0094  142.8188  165.3181 C.ar    1  UNL1       -0.0216
      9 C         142.3586  142.7499  163.8610 C.ar    1  UNL1        0.0346
     10 C         141.2975  142.9716  162.8242 C.ar    1  UNL1        0.1640
     11 O         141.3423  142.9658  161.3249 O.2     1  UNL1       -0.4384
     12 C         143.2102  142.5686  166.1818 C.3     1  UNL1        0.0434
     13 C         143.2971  142.5472  167.6792 C.3     1  UNL1        0.0768
     14 N         142.2049  142.7707  168.6826 N.3     1  UNL1       -0.2720
     15 C         140.7559  143.0708  168.4367 C.3     1  UNL1        0.0768
     16 C         140.0413  143.2215  167.1264 C.3     1  UNL1        0.0434
     17 C         141.8795  141.7702  171.0582 C.3     1  UNL1        0.0294
     18 C         142.0235  140.2831  170.9240 C.3     1  UNL1        0.0666
     19 S         142.1363  139.6602  169.5642 S.3     1  UNL1       -0.0756
     20 C         140.9297  139.5715  168.6774 C.ar    1  UNL1        0.1932
     21 N         139.5008  139.6875  169.1187 N.ar    1  UNL1       -0.1221
     22 N         138.6282  139.5389  167.9078 N.ar    1  UNL1       -0.1282
     23 C         139.5178  139.3311  166.7181 C.ar    1  UNL1        0.1683
     24 N         140.9403  139.3513  167.1937 N.ar    1  UNL1       -0.2884
     25 C         142.1592  139.1810  166.3362 C.3     1  UNL1        0.1340
     26 C         139.0646  139.1372  165.3014 C.ar    1  UNL1        0.0551
     27 C         139.3430  137.8434  164.5953 C.ar    1  UNL1        0.0062
     28 C         138.8898  137.6495  163.1786 C.ar    1  UNL1        0.0208
     29 C         138.1581  138.7493  162.4680 C.ar    1  UNL1        0.0989
     30 N         137.8797  140.0431  163.1741 N.ar    1  UNL1       -0.2422
     31 C         138.3330  140.2370  164.5908 C.ar    1  UNL1        0.1019
@<TRIPOS>BOND
     1     2     3    1
     2     3     4   ar
     3     4     5   ar
     4     5     6   ar
     5     6     7   ar
     6     7     8   ar
     7     8     9   ar
     8     9    10   ar
     9    10    11   ar
    10     8    12    1
    11    12    13    1
    12    13    14    1
    13    14     1    1
    14     1    17    1
    15    17    18    1
    16    18    19    1
    17    19    20    1
    18    20    21   ar
    19    21    22   ar
    20    22    23   ar
    21    23    26    1
    22    26    27   ar
    23    27    28   ar
    24    28    29   ar
    25    29    30   ar
    26    30    31   ar
    27    23    24   ar
    28    24    25    1
    29    14    15    1
    30    15    16    1
    31    11     3   ar
    32    24    20   ar
    33    10     5   ar
    34    31    26   ar
    35    16     7    1
@<TRIPOS>MOLECULE
*****
 31 35 0 0 0
SMALL
GASTEIGER

@<TRIPOS>ATOM
      1 C         141.6576  143.7043  159.4200 C.3     1  UNL1        0.0730
      2 C         141.1418  139.7093  169.8623 C.3     1  UNL1        0.0950
      3 C         141.2109  140.2447  168.4628 C.ar    1  UNL1        0.2062
      4 N         140.7941  141.6166  168.0220 N.ar    1  UNL1       -0.2121
      5 C         141.0346  141.7220  166.5453 C.ar    1  UNL1        0.1182
      6 C         140.8118  142.8391  165.5693 C.ar    1  UNL1        0.0178
      7 C         141.1544  142.6493  164.1212 C.ar    1  UNL1       -0.0230
      8 C         141.7197  141.3427  163.6493 C.ar    1  UNL1       -0.0216
      9 C         141.9426  140.2256  164.6252 C.ar    1  UNL1        0.0346
     10 C         141.6000  140.4152  166.0732 C.ar    1  UNL1        0.1640
     11 O         141.7090  139.5023  167.2584 O.2     1  UNL1       -0.4384
     12 C         142.1263  140.9465  162.2608 C.3     1  UNL1        0.0434
     13 C         142.0679  141.7593  161.0014 C.3     1  UNL1        0.0768
     14 N         141.5885  143.1688  160.8195 N.3     1  UNL1       -0.2720
     15 C         141.0491  144.1139  161.8520 C.3     1  UNL1        0.0768
     16 C         140.8559  143.8827  163.3214 C.3     1  UNL1        0.0434
     17 C         141.0050  142.9541  158.2968 C.3     1  UNL1        0.0294
     18 C         139.5525  143.1731  157.9928 C.3     1  UNL1        0.0666
     19 S         138.5277  142.1937  158.4833 S.3     1  UNL1       -0.0756
     20 C         138.3056  142.0150  159.9559 C.ar    1  UNL1        0.1932
     21 N         137.7446  143.0424  160.8940 N.ar    1  UNL1       -0.1221
     22 N         137.6977  142.4400  162.2669 N.ar    1  UNL1       -0.1282
     23 C         138.2295  141.0403  162.1773 C.ar    1  UNL1        0.1683
     24 N         138.6053  140.7776  160.7490 N.ar    1  UNL1       -0.2884
     25 C         139.1798  139.5017  160.2088 C.3     1  UNL1        0.1340
     26 C         138.3624  140.0730  163.3161 C.ar    1  UNL1        0.0551
     27 C         138.8215  138.6686  163.0575 C.ar    1  UNL1        0.0062
     28 C         138.9544  137.7014  164.1963 C.ar    1  UNL1        0.0208
     29 C         138.6282  138.1384  165.5936 C.ar    1  UNL1        0.0989
     30 N         138.1691  139.5429  165.8521 N.ar    1  UNL1       -0.2422
     31 C         138.0362  140.5101  164.7134 C.ar    1  UNL1        0.1019
@<TRIPOS>BOND
     1     2     3    1
     2     3     4   ar
     3     4     5   ar
     4     5     6   ar
     5     6     7   ar
     6     7     8   ar
     7     8     9   ar
     8     9    10   ar
     9    10    11   ar
    10     8    12    1
    11    12    13    1
    12    13    14    1
    13    14     1    1
    14     1    17    1
    15    17    18    1
    16    18    19    1
    17    19    20    1
    18    20    21   ar
    19    21    22   ar
    20    22    23   ar
    21    23    26    1
    22    26    27   ar
    23    27    28   ar
    24    28    29   ar
    25    29    30   ar
    26    30    31   ar
    27    23    24   ar
    28    24    25    1
    29    14    15    1
    30    15    16    1
    31    11     3   ar
    32    24    20   ar
    33    10     5   ar
    34    31    26   ar
    35    16     7    1
@<TRIPOS>MOLECULE
*****
 31 35 0 0 0
SMALL
GASTEIGER

@<TRIPOS>ATOM
      1 C         139.4636  145.4399  161.7962 C.3     1  UNL1        0.0730
      2 C         142.4955  138.7561  170.2462 C.3     1  UNL1        0.0950
      3 C         142.0892  139.6519  169.1137 C.ar    1  UNL1        0.2062
      4 N         142.9770  140.6267  168.3983 N.ar    1  UNL1       -0.2121
      5 C         142.1602  141.3073  167.3403 C.ar    1  UNL1        0.1182
      6 C         142.5046  142.3601  166.3288 C.ar    1  UNL1        0.0178
      7 C         141.4563  142.8589  165.3788 C.ar    1  UNL1       -0.0230
      8 C         140.0639  142.3049  165.4403 C.ar    1  UNL1       -0.0216
      9 C         139.7194  141.2521  166.4517 C.ar    1  UNL1        0.0346
     10 C         140.7676  140.7533  167.4018 C.ar    1  UNL1        0.1640
     11 O         140.7237  139.7302  168.4978 O.2     1  UNL1       -0.4384
     12 C         138.8778  142.6598  164.5932 C.3     1  UNL1        0.0434
     13 C         138.7916  143.6564  163.4754 C.3     1  UNL1        0.0768
     14 N         139.8699  144.5441  162.9287 N.3     1  UNL1       -0.2720
     15 C         141.3009  144.6546  163.3647 C.3     1  UNL1        0.0768
     16 C         142.0070  143.9046  164.4551 C.3     1  UNL1        0.0434
     17 C         140.3603  145.5952  160.6038 C.3     1  UNL1        0.0294
     18 C         140.0973  144.8007  159.3589 C.3     1  UNL1        0.0666
     19 S         140.8262  143.5110  159.1243 S.3     1  UNL1       -0.0756
     20 C         140.8488  142.4573  160.1916 C.ar    1  UNL1        0.1932
     21 N         139.7025  141.5714  160.5803 N.ar    1  UNL1       -0.1221
     22 N         140.1668  140.6710  161.6866 N.ar    1  UNL1       -0.1282
     23 C         141.6002  141.0005  161.9816 C.ar    1  UNL1        0.1683
     24 N         142.0217  142.1045  161.0576 N.ar    1  UNL1       -0.2884
     25 C         143.3779  142.7435  161.0084 C.3     1  UNL1        0.1340
     26 C         142.4609  140.3417  163.0185 C.ar    1  UNL1        0.0551
     27 C         143.9235  140.6658  163.0952 C.ar    1  UNL1        0.0062
     28 C         144.7842  140.0070  164.1321 C.ar    1  UNL1        0.0208
     29 C         144.1825  139.0242  165.0922 C.ar    1  UNL1        0.0989
     30 N         142.7199  138.7002  165.0155 N.ar    1  UNL1       -0.2422
     31 C         141.8592  139.3589  163.9786 C.ar    1  UNL1        0.1019
@<TRIPOS>BOND
     1     2     3    1
     2     3     4   ar
     3     4     5   ar
     4     5     6   ar
     5     6     7   ar
     6     7     8   ar
     7     8     9   ar
     8     9    10   ar
     9    10    11   ar
    10     8    12    1
    11    12    13    1
    12    13    14    1
    13    14     1    1
    14     1    17    1
    15    17    18    1
    16    18    19    1
    17    19    20    1
    18    20    21   ar
    19    21    22   ar
    20    22    23   ar
    21    23    26    1
    22    26    27   ar
    23    27    28   ar
    24    28    29   ar
    25    29    30   ar
    26    30    31   ar
    27    23    24   ar
    28    24    25    1
    29    14    15    1
    30    15    16    1
    31    11     3   ar
    32    24    20   ar
    33    10     5   ar
    34    31    26   ar
    35    16     7    1
