@<TRIPOS>MOLECULE
*****
 31 33 0 0 0
SMALL
GASTEIGER

@<TRIPOS>ATOM
      1 N         143.4319  138.6240  166.9559 N.pl3   1  UNL1       -0.2819
      2 H         144.0996  138.0379  167.3800 H       1  UNL1        0.1551
      3 C         141.8358  137.8871  163.3979 C.ar    1  UNL1        0.1430
      4 C         142.0285  137.9227  164.8850 C.ar    1  UNL1        0.0713
      5 C         143.2393  138.5884  165.4687 C.ar    1  UNL1        0.1363
      6 N         144.2576  139.2184  164.5653 N.ar    1  UNL1       -0.2288
      7 C         144.0650  139.1827  163.0782 C.ar    1  UNL1        0.1034
      8 C         142.8541  138.5171  162.4945 C.ar    1  UNL1        0.0563
      9 C         142.6615  138.4815  161.0073 C.ar    1  UNL1        0.0441
     10 C         142.0770  139.5782  160.1674 C.ar    1  UNL1        0.1218
     11 N         142.0739  139.1174  158.7399 N.ar    1  UNL1       -0.1676
     12 N         142.6566  137.7358  158.6976 N.ar    1  UNL1       -0.2473
     13 C         142.8433  136.8949  157.4696 C.3     1  UNL1        0.1538
     14 C         143.0197  137.3428  160.0989 C.ar    1  UNL1        0.0968
     15 C         139.2531  137.6550  163.2382 C.3     1  UNL1        0.2525
     16 O         140.6250  137.2214  162.8142 O.3     1  UNL1       -0.4713
     17 C         142.6070  139.5525  167.7970 C.ar    1  UNL1        0.1558
     18 C         142.4646  139.3040  169.2694 C.ar    1  UNL1        0.1342
     19 N         141.6398  140.2326  170.1104 N.ar    1  UNL1       -0.2263
     20 C         140.9573  141.4097  169.4790 C.ar    1  UNL1        0.2025
     21 C         141.0997  141.6582  168.0066 C.ar    1  UNL1        0.2543
     22 N         141.9246  140.7296  167.1656 N.ar    1  UNL1       -0.1931
     23 C         140.1324  142.3383  170.3200 C.1     1  UNL1        0.1246
     24 N         139.3076  143.2669  171.1611 N.1     1  UNL1       -0.1891
     25 O         140.4172  142.8354  167.3752 O.3     1  UNL1       -0.4610
     26 C         139.9382  142.7522  165.9562 C.3     1  UNL1        0.1836
     27 C         139.1477  141.5618  165.5001 C.3     1  UNL1        0.0488
     28 C         140.2495  143.8595  164.9934 C.3     1  UNL1        0.1163
     29 N         141.5852  143.9080  164.3127 N.3     1  UNL1       -0.2673
     30 C         142.4254  142.6688  164.2204 C.3     1  UNL1        0.0898
     31 C         142.0807  145.1957  163.7241 C.3     1  UNL1        0.0898
@<TRIPOS>BOND
     1    15    16    1
     2    16     3    1
     3     3     4   ar
     4     4     5   ar
     5     5     1    1
     6     1    17    1
     7    17    18   ar
     8    18    19   ar
     9    19    20   ar
    10    20    23    1
    11    23    24    3
    12    20    21   ar
    13    21    25    1
    14    25    26    1
    15    26    27    1
    16    26    28    1
    17    28    29    1
    18    29    30    1
    19    29    31    1
    20    21    22   ar
    21     5     6   ar
    22     6     7   ar
    23     7     8   ar
    24     8     9    1
    25     9    10   ar
    26    10    11   ar
    27    11    12   ar
    28    12    13    1
    29    12    14   ar
    30     8     3   ar
    31    14     9   ar
    32    22    17   ar
    33     1     2    1
@<TRIPOS>MOLECULE
*****
 31 33 0 0 0
SMALL
GASTEIGER

@<TRIPOS>ATOM
      1 N         143.0041  138.8142  166.7182 N.pl3   1  UNL1       -0.2819
      2 H         143.5330  138.1453  167.2102 H       1  UNL1        0.1551
      3 C         143.4373  139.2554  162.7981 C.ar    1  UNL1        0.1430
      4 C         143.6546  139.4091  164.2742 C.ar    1  UNL1        0.0713
      5 C         142.7868  138.6605  165.2420 C.ar    1  UNL1        0.1363
      6 N         141.7018  137.7582  164.7336 N.ar    1  UNL1       -0.2288
      7 C         141.4845  137.6045  163.2574 C.ar    1  UNL1        0.1034
      8 C         142.3523  138.3531  162.2896 C.ar    1  UNL1        0.0563
      9 C         142.1350  138.1994  160.8134 C.ar    1  UNL1        0.0441
     10 C         141.0213  138.8129  160.0175 C.ar    1  UNL1        0.1218
     11 N         141.1913  138.3978  158.5862 N.ar    1  UNL1       -0.1676
     12 N         142.4100  137.5278  158.4974 N.ar    1  UNL1       -0.2473
     13 C         142.9505  136.8920  157.2509 C.3     1  UNL1        0.1538
     14 C         142.9932  137.4052  159.8739 C.ar    1  UNL1        0.0968
     15 C         144.8302  141.3624  162.1894 C.3     1  UNL1        0.2525
     16 O         144.3051  140.0041  161.8303 O.3     1  UNL1       -0.4713
     17 C         142.4156  139.9872  167.4448 C.ar    1  UNL1        0.1558
     18 C         142.6761  140.1689  168.9108 C.ar    1  UNL1        0.1342
     19 N         142.0876  141.3418  169.6374 N.ar    1  UNL1       -0.2263
     20 C         141.2386  142.3330  168.8979 C.ar    1  UNL1        0.2025
     21 C         140.9781  142.1513  167.4319 C.ar    1  UNL1        0.2543
     22 N         141.5666  140.9784  166.7054 N.ar    1  UNL1       -0.1931
     23 C         140.6500  143.5060  169.6245 C.1     1  UNL1        0.1246
     24 N         140.0615  144.6789  170.3510 N.1     1  UNL1       -0.1891
     25 O         140.1291  143.1425  166.6925 O.3     1  UNL1       -0.4610
     26 C         139.8417  142.9431  165.2338 C.3     1  UNL1        0.1836
     27 C         140.8013  143.4593  164.2030 C.3     1  UNL1        0.0488
     28 C         138.5946  142.2276  164.8061 C.3     1  UNL1        0.1163
     29 N         138.6409  140.7612  164.4942 N.3     1  UNL1       -0.2673
     30 C         138.9667  140.2998  163.1046 C.3     1  UNL1        0.0898
     31 C         138.3614  139.7559  165.5720 C.3     1  UNL1        0.0898
@<TRIPOS>BOND
     1    15    16    1
     2    16     3    1
     3     3     4   ar
     4     4     5   ar
     5     5     1    1
     6     1    17    1
     7    17    18   ar
     8    18    19   ar
     9    19    20   ar
    10    20    23    1
    11    23    24    3
    12    20    21   ar
    13    21    25    1
    14    25    26    1
    15    26    27    1
    16    26    28    1
    17    28    29    1
    18    29    30    1
    19    29    31    1
    20    21    22   ar
    21     5     6   ar
    22     6     7   ar
    23     7     8   ar
    24     8     9    1
    25     9    10   ar
    26    10    11   ar
    27    11    12   ar
    28    12    13    1
    29    12    14   ar
    30     8     3   ar
    31    14     9   ar
    32    22    17   ar
    33     1     2    1
@<TRIPOS>MOLECULE
*****
 31 33 0 0 0
SMALL
GASTEIGER

@<TRIPOS>ATOM
      1 N         137.7183  139.9652  164.1643 N.pl3   1  UNL1       -0.2819
      2 H         136.7556  139.8555  164.3389 H       1  UNL1        0.1551
      3 C         139.6095  140.4257  167.6228 C.ar    1  UNL1        0.1430
      4 C         138.7148  139.8578  166.5613 C.ar    1  UNL1        0.0713
      5 C         138.6131  140.5332  165.2258 C.ar    1  UNL1        0.1363
      6 N         139.4063  141.7765  164.9519 N.ar    1  UNL1       -0.2288
      7 C         140.3010  142.3444  166.0134 C.ar    1  UNL1        0.1034
      8 C         140.4027  141.6690  167.3489 C.ar    1  UNL1        0.0563
      9 C         141.2975  142.2369  168.4104 C.ar    1  UNL1        0.0441
     10 C         140.8719  143.1328  169.5357 C.ar    1  UNL1        0.1218
     11 N         142.0864  143.4583  170.3537 N.ar    1  UNL1       -0.1676
     12 N         143.2626  142.7635  169.7340 N.ar    1  UNL1       -0.2473
     13 C         144.6778  142.8146  170.2284 C.3     1  UNL1        0.1538
     14 C         142.7750  142.0087  168.5329 C.ar    1  UNL1        0.0968
     15 C         138.7718  140.1302  170.0643 C.3     1  UNL1        0.2525
     16 O         139.7112  139.7503  168.9583 O.3     1  UNL1       -0.4713
     17 C         138.2903  139.5643  162.8369 C.ar    1  UNL1        0.1558
     18 C         137.6226  140.0060  161.5683 C.ar    1  UNL1        0.1342
     19 N         138.1946  139.6051  160.2408 N.ar    1  UNL1       -0.2263
     20 C         139.4342  138.7626  160.1819 C.ar    1  UNL1        0.2025
     21 C         140.1019  138.3210  161.4505 C.ar    1  UNL1        0.2543
     22 N         139.5299  138.7218  162.7779 N.ar    1  UNL1       -0.1931
     23 C         140.0062  138.3617  158.8545 C.1     1  UNL1        0.1246
     24 N         140.5782  137.9609  157.5270 N.1     1  UNL1       -0.1891
     25 O         141.3416  137.4784  161.3916 O.3     1  UNL1       -0.4610
     26 C         142.6222  137.9859  161.9852 C.3     1  UNL1        0.1836
     27 C         143.8386  138.1431  161.1218 C.3     1  UNL1        0.0488
     28 C         142.6864  138.3361  163.4424 C.3     1  UNL1        0.1163
     29 N         142.7579  139.7733  163.8658 N.3     1  UNL1       -0.2673
     30 C         142.3647  140.8581  162.9073 C.3     1  UNL1        0.0898
     31 C         143.2225  140.1257  165.2479 C.3     1  UNL1        0.0898
@<TRIPOS>BOND
     1    15    16    1
     2    16     3    1
     3     3     4   ar
     4     4     5   ar
     5     5     1    1
     6     1    17    1
     7    17    18   ar
     8    18    19   ar
     9    19    20   ar
    10    20    23    1
    11    23    24    3
    12    20    21   ar
    13    21    25    1
    14    25    26    1
    15    26    27    1
    16    26    28    1
    17    28    29    1
    18    29    30    1
    19    29    31    1
    20    21    22   ar
    21     5     6   ar
    22     6     7   ar
    23     7     8   ar
    24     8     9    1
    25     9    10   ar
    26    10    11   ar
    27    11    12   ar
    28    12    13    1
    29    12    14   ar
    30     8     3   ar
    31    14     9   ar
    32    22    17   ar
    33     1     2    1
@<TRIPOS>MOLECULE
*****
 31 33 0 0 0
SMALL
GASTEIGER

@<TRIPOS>ATOM
      1 N         138.8408  137.5960  164.1706 N.pl3   1  UNL1       -0.2819
      2 H         138.1632  136.8857  164.0961 H       1  UNL1        0.1551
      3 C         140.1031  139.2486  160.7904 C.ar    1  UNL1        0.1430
      4 C         139.2345  138.9143  161.9667 C.ar    1  UNL1        0.0713
      5 C         139.7096  137.9303  162.9943 C.ar    1  UNL1        0.1363
      6 N         141.0533  137.2805  162.8457 N.ar    1  UNL1       -0.2288
      7 C         141.9220  137.6149  161.6694 C.ar    1  UNL1        0.1034
      8 C         141.4469  138.5989  160.6418 C.ar    1  UNL1        0.0563
      9 C         142.3156  138.9332  159.4655 C.ar    1  UNL1        0.0441
     10 C         142.5211  138.0786  158.2500 C.ar    1  UNL1        0.1218
     11 N         143.4638  138.7980  157.3315 N.ar    1  UNL1       -0.1676
     12 N         143.8410  140.0973  157.9793 N.ar    1  UNL1       -0.2473
     13 C         144.7655  141.1314  157.4085 C.3     1  UNL1        0.1538
     14 C         143.1313  140.1808  159.2982 C.ar    1  UNL1        0.0968
     15 C         138.2150  140.1720  159.2633 C.3     1  UNL1        0.2525
     16 O         139.6280  140.2326  159.7628 O.3     1  UNL1       -0.4713
     17 C         139.0045  138.3440  165.4605 C.ar    1  UNL1        0.1558
     18 C         137.9276  138.2858  166.5031 C.ar    1  UNL1        0.1342
     19 N         138.0913  139.0338  167.7929 N.ar    1  UNL1       -0.2263
     20 C         139.3319  139.8399  168.0402 C.ar    1  UNL1        0.2025
     21 C         140.4088  139.8981  166.9976 C.ar    1  UNL1        0.2543
     22 N         140.2450  139.1501  165.7077 N.ar    1  UNL1       -0.1931
     23 C         139.4956  140.5879  169.3300 C.1     1  UNL1        0.1246
     24 N         139.6594  141.3359  170.6199 N.1     1  UNL1       -0.1891
     25 O         141.6494  140.7042  167.2448 O.3     1  UNL1       -0.4610
     26 C         141.8579  142.0010  166.5205 C.3     1  UNL1        0.1836
     27 C         143.2473  142.4641  166.1965 C.3     1  UNL1        0.0488
     28 C         140.6770  142.8348  166.1200 C.3     1  UNL1        0.1163
     29 N         140.4601  143.1841  164.6775 N.3     1  UNL1       -0.2673
     30 C         140.7075  144.5842  164.1995 C.3     1  UNL1        0.0898
     31 C         139.9958  142.1333  163.7130 C.3     1  UNL1        0.0898
@<TRIPOS>BOND
     1    15    16    1
     2    16     3    1
     3     3     4   ar
     4     4     5   ar
     5     5     1    1
     6     1    17    1
     7    17    18   ar
     8    18    19   ar
     9    19    20   ar
    10    20    23    1
    11    23    24    3
    12    20    21   ar
    13    21    25    1
    14    25    26    1
    15    26    27    1
    16    26    28    1
    17    28    29    1
    18    29    30    1
    19    29    31    1
    20    21    22   ar
    21     5     6   ar
    22     6     7   ar
    23     7     8   ar
    24     8     9    1
    25     9    10   ar
    26    10    11   ar
    27    11    12   ar
    28    12    13    1
    29    12    14   ar
    30     8     3   ar
    31    14     9   ar
    32    22    17   ar
    33     1     2    1
@<TRIPOS>MOLECULE
*****
 31 33 0 0 0
SMALL
GASTEIGER

@<TRIPOS>ATOM
      1 N         138.8665  138.0337  163.3599 N.pl3   1  UNL1       -0.2819
      2 H         138.6119  137.0832  163.3291 H       1  UNL1        0.1551
      3 C         141.4873  139.2242  166.0919 C.ar    1  UNL1        0.1430
      4 C         140.9192  138.6404  164.8325 C.ar    1  UNL1        0.0713
      5 C         139.4346  138.6176  164.6195 C.ar    1  UNL1        0.1363
      6 N         138.5181  139.1786  165.6659 N.ar    1  UNL1       -0.2288
      7 C         139.0862  139.7625  166.9254 C.ar    1  UNL1        0.1034
      8 C         140.5708  139.7853  167.1384 C.ar    1  UNL1        0.0563
      9 C         141.1389  140.3692  168.3980 C.ar    1  UNL1        0.0441
     10 C         141.1389  139.7187  169.7496 C.ar    1  UNL1        0.1218
     11 N         141.8067  140.6536  170.7139 N.ar    1  UNL1       -0.1676
     12 N         142.2194  141.8820  169.9583 N.ar    1  UNL1       -0.2473
     13 C         142.9216  143.0763  170.5331 C.3     1  UNL1        0.1538
     14 C         141.8067  141.7062  168.5270 C.ar    1  UNL1        0.0968
     15 C         143.8992  139.0176  165.1484 C.3     1  UNL1        0.2525
     16 O         142.9720  139.2470  166.3050 O.3     1  UNL1       -0.4713
     17 C         138.6865  138.8980  162.1472 C.ar    1  UNL1        0.1558
     18 C         138.9002  138.3233  160.7782 C.ar    1  UNL1        0.1342
     19 N         138.7201  139.1877  159.5656 N.ar    1  UNL1       -0.2263
     20 C         138.3264  140.6266  159.7219 C.ar    1  UNL1        0.2025
     21 C         138.1127  141.2012  161.0909 C.ar    1  UNL1        0.2543
     22 N         138.2927  140.3369  162.3036 N.ar    1  UNL1       -0.1931
     23 C         138.1463  141.4910  158.5093 C.1     1  UNL1        0.1246
     24 N         137.9663  142.3553  157.2966 N.1     1  UNL1       -0.1891
     25 O         137.7189  142.6402  161.2473 O.3     1  UNL1       -0.4610
     26 C         138.4417  143.5130  162.2300 C.3     1  UNL1        0.1836
     27 C         137.6696  144.2736  163.2670 C.3     1  UNL1        0.0488
     28 C         139.9365  143.6251  162.1758 C.3     1  UNL1        0.1163
     29 N         140.7356  143.6180  163.4452 N.3     1  UNL1       -0.2673
     30 C         141.4996  144.8413  163.8574 C.3     1  UNL1        0.0898
     31 C         140.7709  142.3875  164.3024 C.3     1  UNL1        0.0898
@<TRIPOS>BOND
     1    15    16    1
     2    16     3    1
     3     3     4   ar
     4     4     5   ar
     5     5     1    1
     6     1    17    1
     7    17    18   ar
     8    18    19   ar
     9    19    20   ar
    10    20    23    1
    11    23    24    3
    12    20    21   ar
    13    21    25    1
    14    25    26    1
    15    26    27    1
    16    26    28    1
    17    28    29    1
    18    29    30    1
    19    29    31    1
    20    21    22   ar
    21     5     6   ar
    22     6     7   ar
    23     7     8   ar
    24     8     9    1
    25     9    10   ar
    26    10    11   ar
    27    11    12   ar
    28    12    13    1
    29    12    14   ar
    30     8     3   ar
    31    14     9   ar
    32    22    17   ar
    33     1     2    1
@<TRIPOS>MOLECULE
*****
 31 33 0 0 0
SMALL
GASTEIGER

@<TRIPOS>ATOM
      1 N         138.6765  139.1252  167.1107 N.pl3   1  UNL1       -0.2819
      2 H         138.1177  138.4681  167.5853 H       1  UNL1        0.1551
      3 C         138.0173  140.4719  163.4362 C.ar    1  UNL1        0.1430
      4 C         138.0532  140.3994  164.9340 C.ar    1  UNL1        0.0713
      5 C         138.6407  139.1977  165.6128 C.ar    1  UNL1        0.1363
      6 N         139.1922  138.0685  164.7939 N.ar    1  UNL1       -0.2288
      7 C         139.1563  138.1410  163.2961 C.ar    1  UNL1        0.1034
      8 C         138.5688  139.3427  162.6173 C.ar    1  UNL1        0.0563
      9 C         138.5330  139.4152  161.1194 C.ar    1  UNL1        0.0441
     10 C         137.4538  140.0495  160.2930 C.ar    1  UNL1        0.1218
     11 N         137.8239  139.8924  158.8478 N.ar    1  UNL1       -0.1676
     12 N         139.1318  139.1609  158.7811 N.ar    1  UNL1       -0.2473
     13 C         139.8715  138.7896  157.5302 C.3     1  UNL1        0.1538
     14 C         139.5700  138.8660  160.1850 C.ar    1  UNL1        0.0968
     15 C         137.7087  143.0474  163.2908 C.3     1  UNL1        0.2525
     16 O         137.4299  141.6736  162.7573 O.3     1  UNL1       -0.4713
     17 C         139.5638  140.0539  167.8854 C.ar    1  UNL1        0.1558
     18 C         139.2128  140.4239  169.2961 C.ar    1  UNL1        0.1342
     19 N         140.1001  141.3526  170.0709 N.ar    1  UNL1       -0.2263
     20 C         141.3384  141.9114  169.4349 C.ar    1  UNL1        0.2025
     21 C         141.6894  141.5414  168.0243 C.ar    1  UNL1        0.2543
     22 N         140.8021  140.6127  167.2495 N.ar    1  UNL1       -0.1931
     23 C         142.2257  142.8401  170.2096 C.1     1  UNL1        0.1246
     24 N         143.1130  143.7688  170.9844 N.1     1  UNL1       -0.1891
     25 O         142.9277  142.1002  167.3883 O.3     1  UNL1       -0.4610
     26 C         142.9126  142.5024  165.9434 C.3     1  UNL1        0.1836
     27 C         141.6262  142.9189  165.2942 C.3     1  UNL1        0.0488
     28 C         144.1841  142.4881  165.1475 C.3     1  UNL1        0.1163
     29 N         144.4781  141.3431  164.2243 N.3     1  UNL1       -0.2673
     30 C         145.3445  141.5554  163.0184 C.3     1  UNL1        0.0898
     31 C         143.9059  139.9856  164.5070 C.3     1  UNL1        0.0898
@<TRIPOS>BOND
     1    15    16    1
     2    16     3    1
     3     3     4   ar
     4     4     5   ar
     5     5     1    1
     6     1    17    1
     7    17    18   ar
     8    18    19   ar
     9    19    20   ar
    10    20    23    1
    11    23    24    3
    12    20    21   ar
    13    21    25    1
    14    25    26    1
    15    26    27    1
    16    26    28    1
    17    28    29    1
    18    29    30    1
    19    29    31    1
    20    21    22   ar
    21     5     6   ar
    22     6     7   ar
    23     7     8   ar
    24     8     9    1
    25     9    10   ar
    26    10    11   ar
    27    11    12   ar
    28    12    13    1
    29    12    14   ar
    30     8     3   ar
    31    14     9   ar
    32    22    17   ar
    33     1     2    1
@<TRIPOS>MOLECULE
*****
 31 33 0 0 0
SMALL
GASTEIGER

@<TRIPOS>ATOM
      1 N         138.6628  138.0780  164.2739 N.pl3   1  UNL1       -0.2819
      2 H         138.5020  137.1088  164.2104 H       1  UNL1        0.1551
      3 C         138.0485  141.1402  161.8253 C.ar    1  UNL1        0.1430
      4 C         138.0550  140.2960  163.0651 C.ar    1  UNL1        0.0713
      5 C         138.6563  138.9222  163.0339 C.ar    1  UNL1        0.1363
      6 N         139.2510  138.3925  161.7629 N.ar    1  UNL1       -0.2288
      7 C         139.2445  139.2366  160.5230 C.ar    1  UNL1        0.1034
      8 C         138.6432  140.6105  160.5542 C.ar    1  UNL1        0.0563
      9 C         138.6366  141.4546  159.3142 C.ar    1  UNL1        0.0441
     10 C         137.8018  141.2178  158.0908 C.ar    1  UNL1        0.1218
     11 N         138.1130  142.3006  157.1005 N.ar    1  UNL1       -0.1676
     12 N         139.1403  143.2067  157.7120 N.ar    1  UNL1       -0.2473
     13 C         139.7387  144.4222  157.0683 C.3     1  UNL1        0.1538
     14 C         139.4638  142.6839  159.0801 C.ar    1  UNL1        0.0968
     15 C         138.0156  143.5610  162.7679 C.3     1  UNL1        0.2525
     16 O         137.4472  142.5140  161.8565 O.3     1  UNL1       -0.4713
     17 C         138.9144  138.7106  165.6105 C.ar    1  UNL1        0.1558
     18 C         137.9261  138.5289  166.7242 C.ar    1  UNL1        0.1342
     19 N         138.1776  139.1615  168.0608 N.ar    1  UNL1       -0.2263
     20 C         139.4175  139.9758  168.2838 C.ar    1  UNL1        0.2025
     21 C         140.4058  140.1575  167.1701 C.ar    1  UNL1        0.2543
     22 N         140.1542  139.5249  165.8335 N.ar    1  UNL1       -0.1931
     23 C         139.6691  140.6084  169.6204 C.1     1  UNL1        0.1246
     24 N         139.9207  141.2410  170.9570 N.1     1  UNL1       -0.1891
     25 O         141.6457  140.9717  167.3930 O.3     1  UNL1       -0.4610
     26 C         141.9971  142.0783  166.4433 C.3     1  UNL1        0.1836
     27 C         140.9213  142.9737  165.9041 C.3     1  UNL1        0.0488
     28 C         143.4243  142.2895  166.0328 C.3     1  UNL1        0.1163
     29 N         143.9565  141.6224  164.7993 N.3     1  UNL1       -0.2673
     30 C         145.1955  142.1484  164.1373 C.3     1  UNL1        0.0898
     31 C         143.2496  140.4292  164.2275 C.3     1  UNL1        0.0898
@<TRIPOS>BOND
     1    15    16    1
     2    16     3    1
     3     3     4   ar
     4     4     5   ar
     5     5     1    1
     6     1    17    1
     7    17    18   ar
     8    18    19   ar
     9    19    20   ar
    10    20    23    1
    11    23    24    3
    12    20    21   ar
    13    21    25    1
    14    25    26    1
    15    26    27    1
    16    26    28    1
    17    28    29    1
    18    29    30    1
    19    29    31    1
    20    21    22   ar
    21     5     6   ar
    22     6     7   ar
    23     7     8   ar
    24     8     9    1
    25     9    10   ar
    26    10    11   ar
    27    11    12   ar
    28    12    13    1
    29    12    14   ar
    30     8     3   ar
    31    14     9   ar
    32    22    17   ar
    33     1     2    1
@<TRIPOS>MOLECULE
*****
 31 33 0 0 0
SMALL
GASTEIGER

@<TRIPOS>ATOM
      1 N         138.5306  138.5724  164.1678 N.pl3   1  UNL1       -0.2819
      2 H         138.1844  137.6722  163.9700 H       1  UNL1        0.1551
      3 C         138.1902  141.8623  161.9745 C.ar    1  UNL1        0.1430
      4 C         137.9961  140.8727  163.0849 C.ar    1  UNL1        0.0713
      5 C         138.7248  139.5619  163.0573 C.ar    1  UNL1        0.1363
      6 N         139.6477  139.2407  161.9193 N.ar    1  UNL1       -0.2288
      7 C         139.8418  140.2302  160.8089 C.ar    1  UNL1        0.1034
      8 C         139.1131  141.5410  160.8365 C.ar    1  UNL1        0.0563
      9 C         139.3073  142.5306  159.7260 C.ar    1  UNL1        0.0441
     10 C         138.7003  142.4496  158.3567 C.ar    1  UNL1        0.1218
     11 N         139.1604  143.6438  157.5743 N.ar    1  UNL1       -0.1676
     12 N         140.0519  144.4629  158.4601 N.ar    1  UNL1       -0.2473
     13 C         140.7329  145.7449  158.0824 C.3     1  UNL1        0.1538
     14 C         140.1426  143.7749  159.7899 C.ar    1  UNL1        0.0968
     15 C         137.9300  144.2727  162.9083 C.3     1  UNL1        0.2525
     16 O         137.4615  143.1731  162.0021 O.3     1  UNL1       -0.4713
     17 C         138.8639  138.9544  165.5795 C.ar    1  UNL1        0.1558
     18 C         137.8469  138.7695  166.6665 C.ar    1  UNL1        0.1342
     19 N         138.1802  139.1515  168.0783 N.ar    1  UNL1       -0.2263
     20 C         139.5305  139.7183  168.4030 C.ar    1  UNL1        0.2025
     21 C         140.5475  139.9032  167.3160 C.ar    1  UNL1        0.2543
     22 N         140.2142  139.5212  165.9043 N.ar    1  UNL1       -0.1931
     23 C         139.8638  140.1003  169.8147 C.1     1  UNL1        0.1246
     24 N         140.1971  140.4823  171.2265 N.1     1  UNL1       -0.1891
     25 O         141.8978  140.4700  167.6407 O.3     1  UNL1       -0.4610
     26 C         142.1773  141.9246  167.4039 C.3     1  UNL1        0.1836
     27 C         143.3553  142.3360  166.5714 C.3     1  UNL1        0.0488
     28 C         141.2788  142.9677  167.9995 C.3     1  UNL1        0.1163
     29 N         141.3945  143.3153  169.4540 N.3     1  UNL1       -0.2673
     30 C         140.2754  144.0377  170.1438 C.3     1  UNL1        0.0898
     31 C         142.6292  142.9405  170.2188 C.3     1  UNL1        0.0898
@<TRIPOS>BOND
     1    15    16    1
     2    16     3    1
     3     3     4   ar
     4     4     5   ar
     5     5     1    1
     6     1    17    1
     7    17    18   ar
     8    18    19   ar
     9    19    20   ar
    10    20    23    1
    11    23    24    3
    12    20    21   ar
    13    21    25    1
    14    25    26    1
    15    26    27    1
    16    26    28    1
    17    28    29    1
    18    29    30    1
    19    29    31    1
    20    21    22   ar
    21     5     6   ar
    22     6     7   ar
    23     7     8   ar
    24     8     9    1
    25     9    10   ar
    26    10    11   ar
    27    11    12   ar
    28    12    13    1
    29    12    14   ar
    30     8     3   ar
    31    14     9   ar
    32    22    17   ar
    33     1     2    1
@<TRIPOS>MOLECULE
*****
 31 33 0 0 0
SMALL
GASTEIGER

@<TRIPOS>ATOM
      1 N         138.7477  137.3958  164.2653 N.pl3   1  UNL1       -0.2819
      2 H         138.1142  136.6424  164.2501 H       1  UNL1        0.1551
      3 C         141.8269  137.9507  161.8238 C.ar    1  UNL1        0.1430
      4 C         141.0347  137.6119  163.0517 C.ar    1  UNL1        0.0713
      5 C         139.5398  137.7346  163.0373 C.ar    1  UNL1        0.1363
      6 N         138.8371  138.1961  161.7951 N.ar    1  UNL1       -0.2288
      7 C         139.6292  138.5348  160.5673 C.ar    1  UNL1        0.1034
      8 C         141.1241  138.4121  160.5816 C.ar    1  UNL1        0.0563
      9 C         141.9162  138.7509  159.3536 C.ar    1  UNL1        0.0441
     10 C         142.5623  140.0719  159.0578 C.ar    1  UNL1        0.1218
     11 N         143.2467  139.9656  157.7273 N.ar    1  UNL1       -0.1676
     12 N         143.0236  138.5788  157.2008 N.ar    1  UNL1       -0.2473
     13 C         143.5333  138.0378  155.8979 C.3     1  UNL1        0.1538
     14 C         142.2014  137.8281  158.2059 C.ar    1  UNL1        0.0968
     15 C         144.1554  138.8922  162.4880 C.3     1  UNL1        0.2525
     16 O         143.3218  137.8280  161.8381 O.3     1  UNL1       -0.4713
     17 C         138.9208  138.2050  165.5164 C.ar    1  UNL1        0.1558
     18 C         137.8821  138.1467  166.5971 C.ar    1  UNL1        0.1342
     19 N         138.0553  138.9558  167.8482 N.ar    1  UNL1       -0.2263
     20 C         139.2671  139.8233  168.0186 C.ar    1  UNL1        0.2025
     21 C         140.3057  139.8816  166.9380 C.ar    1  UNL1        0.2543
     22 N         140.1326  139.0724  165.6869 N.ar    1  UNL1       -0.1931
     23 C         139.4403  140.6325  169.2697 C.1     1  UNL1        0.1246
     24 N         139.6134  141.4417  170.5208 N.1     1  UNL1       -0.1891
     25 O         141.5176  140.7491  167.1084 O.3     1  UNL1       -0.4610
     26 C         141.5692  142.1011  166.4609 C.3     1  UNL1        0.1836
     27 C         142.8265  142.5614  165.7849 C.3     1  UNL1        0.0488
     28 C         140.3634  142.9929  166.4895 C.3     1  UNL1        0.1163
     29 N         139.6112  143.2780  165.2235 N.3     1  UNL1       -0.2673
     30 C         139.8882  144.5351  164.4534 C.3     1  UNL1        0.0898
     31 C         138.5820  142.3060  164.7275 C.3     1  UNL1        0.0898
@<TRIPOS>BOND
     1    15    16    1
     2    16     3    1
     3     3     4   ar
     4     4     5   ar
     5     5     1    1
     6     1    17    1
     7    17    18   ar
     8    18    19   ar
     9    19    20   ar
    10    20    23    1
    11    23    24    3
    12    20    21   ar
    13    21    25    1
    14    25    26    1
    15    26    27    1
    16    26    28    1
    17    28    29    1
    18    29    30    1
    19    29    31    1
    20    21    22   ar
    21     5     6   ar
    22     6     7   ar
    23     7     8   ar
    24     8     9    1
    25     9    10   ar
    26    10    11   ar
    27    11    12   ar
    28    12    13    1
    29    12    14   ar
    30     8     3   ar
    31    14     9   ar
    32    22    17   ar
    33     1     2    1
