@<TRIPOS>MOLECULE
*****
 40 44 0 0 0
SMALL
GASTEIGER

@<TRIPOS>ATOM
      1 C         139.3261  137.9596  164.6919 C.3     1  UNL1        0.0162
      2 C         138.8981  138.1054  163.2618 C.3     1  UNL1        0.0028
      3 C         139.8896  137.8917  162.1566 C.3     1  UNL1        0.0158
      4 C         141.3091  137.5321  162.4817 C.3     1  UNL1        0.0543
      5 C         141.7371  137.3862  163.9120 C.3     1  UNL1        0.0158
      6 C         140.7456  137.6000  165.0171 C.3     1  UNL1        0.0028
      7 C         138.3346  138.1734  165.7970 C.3     1  UNL1        0.0737
      8 N         137.6419  136.9983  166.4209 N.3     1  UNL1       -0.3206
      9 H         137.0073  137.3252  167.1495 H       1  UNL1        0.1189
     10 H         138.3358  136.3725  166.8301 H       1  UNL1        0.1189
     11 C         138.0357  139.5624  166.2782 C.3     1  UNL1        0.1245
     12 C         141.5613  140.1596  169.0101 C.ar    1  UNL1        0.1675
     13 C         140.3861  139.9605  168.0995 C.ar    1  UNL1        0.0580
     14 C         140.1842  140.8721  166.9255 C.ar    1  UNL1        0.0833
     15 C         141.1574  141.9827  166.6622 C.ar    1  UNL1        0.0997
     16 C         142.3325  142.1818  167.5728 C.ar    1  UNL1        0.0533
     17 C         142.5345  141.2702  168.7468 C.ar    1  UNL1        0.1754
     18 F         143.7098  141.4693  169.6574 F       1  UNL1       -0.2009
     19 N         140.9554  142.8943  165.4882 N.ar    1  UNL1       -0.2373
     20 C         139.7802  142.6952  164.5775 C.ar    1  UNL1        0.1594
     21 C         138.8069  141.5846  164.8409 C.ar    1  UNL1        0.2803
     22 O         137.6318  141.3855  163.9302 O.2     1  UNL1       -0.2653
     23 N         139.0089  140.6730  166.0149 N.ar    1  UNL1       -0.2913
     24 C         142.8888  138.2565  170.1789 C.3     1  UNL1        0.2526
     25 O         141.7633  139.2480  170.1841 O.3     1  UNL1       -0.4691
     26 N         142.3006  137.3183  161.3767 N.3     1  UNL1       -0.2922
     27 H         141.7820  137.3775  160.5003 H       1  UNL1        0.1236
     28 C         143.4829  138.2316  161.2428 C.3     1  UNL1        0.1353
     29 C         143.3604  139.6776  161.6225 C.ar    1  UNL1        0.1567
     30 N         142.5467  140.6094  160.7741 N.ar    1  UNL1       -0.2245
     31 C         142.4242  142.0554  161.1537 C.ar    1  UNL1        0.1400
     32 C         143.1154  142.5696  162.3817 C.ar    1  UNL1        0.1898
     33 C         143.9291  141.6378  163.2301 C.ar    1  UNL1        0.1715
     34 N         144.0516  140.1918  162.8504 N.ar    1  UNL1       -0.2113
     35 N         144.6202  142.1520  164.4580 N.am    1  UNL1       -0.2638
     36 C         144.4977  143.5979  164.8376 C.2     1  UNL1        0.2718
     37 O         145.1889  144.1122  166.0656 O.2     1  UNL1       -0.2707
     38 C         143.6841  144.5297  163.9892 C.3     1  UNL1        0.2899
     39 O         142.9929  144.0156  162.7613 O.3     1  UNL1       -0.4612
     40 H         145.1543  141.5404  165.0148 H       1  UNL1        0.1565
@<TRIPOS>BOND
     1    24    25    1
     2    25    12    1
     3    12    13   ar
     4    13    14   ar
     5    14    15   ar
     6    15    16   ar
     7    16    17   ar
     8    17    18    1
     9    15    19   ar
    10    19    20   ar
    11    20    21   ar
    12    21    22    2
    13    21    23   ar
    14    23    11    1
    15    11     7    1
    16     7     8    1
    17     7     1    1
    18     1     2    1
    19     2     3    1
    20     3     4    1
    21     4    26    1
    22    26    28    1
    23    28    29    1
    24    29    30   ar
    25    30    31   ar
    26    31    32   ar
    27    32    33   ar
    28    33    34   ar
    29    33    35    1
    30    35    36   am
    31    36    37    2
    32    36    38    1
    33    38    39    1
    34     4     5    1
    35     5     6    1
    36    17    12   ar
    37     6     1    1
    38    23    14   ar
    39    34    29   ar
    40    39    32    1
    41     8     9    1
    42     8    10    1
    43    26    27    1
    44    35    40    1
@<TRIPOS>MOLECULE
*****
 40 44 0 0 0
SMALL
GASTEIGER

@<TRIPOS>ATOM
      1 C         139.3450  137.9867  164.6488 C.3     1  UNL1        0.0162
      2 C         138.8691  138.0592  163.2282 C.3     1  UNL1        0.0028
      3 C         139.8369  137.8493  162.1014 C.3     1  UNL1        0.0158
      4 C         141.2804  137.5670  162.3954 C.3     1  UNL1        0.0543
      5 C         141.7563  137.4945  163.8162 C.3     1  UNL1        0.0158
      6 C         140.7885  137.7044  164.9428 C.3     1  UNL1        0.0028
      7 C         138.3773  138.1966  165.7755 C.3     1  UNL1        0.0737
      8 N         137.7602  137.0154  166.4640 N.3     1  UNL1       -0.3206
      9 H         137.1323  137.3403  167.1993 H       1  UNL1        0.1189
     10 H         138.4949  136.4391  166.8744 H       1  UNL1        0.1189
     11 C         138.0266  139.5877  166.2137 C.3     1  UNL1        0.1245
     12 C         138.6059  142.6626  162.9796 C.ar    1  UNL1        0.1675
     13 C         138.4128  141.6376  164.0576 C.ar    1  UNL1        0.0580
     14 C         139.2948  141.6499  165.2708 C.ar    1  UNL1        0.0833
     15 C         140.3699  142.6871  165.4060 C.ar    1  UNL1        0.0997
     16 C         140.5630  143.7120  164.3280 C.ar    1  UNL1        0.0533
     17 C         139.6810  143.6998  163.1148 C.ar    1  UNL1        0.1754
     18 F         139.8741  144.7248  162.0367 F       1  UNL1       -0.2009
     19 N         141.2520  142.6994  166.6192 N.ar    1  UNL1       -0.2373
     20 C         141.0589  141.6744  167.6972 C.ar    1  UNL1        0.1594
     21 C         139.9837  140.6372  167.5621 C.ar    1  UNL1        0.2803
     22 O         139.7907  139.6122  168.6401 O.2     1  UNL1       -0.2653
     23 N         139.1017  140.6249  166.3489 N.ar    1  UNL1       -0.2913
     24 C         138.2920  142.2756  160.4298 C.3     1  UNL1        0.2526
     25 O         137.7238  142.6503  161.7664 O.3     1  UNL1       -0.4691
     26 N         142.2482  137.3571  161.2687 N.3     1  UNL1       -0.2922
     27 H         141.7522  137.5875  160.4078 H       1  UNL1        0.1236
     28 C         143.5415  138.1163  161.2398 C.3     1  UNL1        0.1353
     29 C         143.5415  139.6052  161.4217 C.ar    1  UNL1        0.1567
     30 N         143.1485  140.4998  160.2835 N.ar    1  UNL1       -0.2245
     31 C         143.1485  141.9887  160.4654 C.ar    1  UNL1        0.1400
     32 C         143.5414  142.5831  161.7854 C.ar    1  UNL1        0.1898
     33 C         143.9343  141.6886  162.9235 C.ar    1  UNL1        0.1715
     34 N         143.9344  140.1996  162.7416 N.ar    1  UNL1       -0.2113
     35 N         144.3273  142.2829  164.2434 N.am    1  UNL1       -0.2638
     36 C         144.3272  143.7718  164.4253 C.2     1  UNL1        0.2718
     37 O         144.7201  144.3663  165.7453 O.2     1  UNL1       -0.2707
     38 C         143.9342  144.6664  163.2871 C.3     1  UNL1        0.2899
     39 O         143.5413  144.0720  161.9672 O.3     1  UNL1       -0.4612
     40 H         144.5852  141.6958  164.9904 H       1  UNL1        0.1565
@<TRIPOS>BOND
     1    24    25    1
     2    25    12    1
     3    12    13   ar
     4    13    14   ar
     5    14    15   ar
     6    15    16   ar
     7    16    17   ar
     8    17    18    1
     9    15    19   ar
    10    19    20   ar
    11    20    21   ar
    12    21    22    2
    13    21    23   ar
    14    23    11    1
    15    11     7    1
    16     7     8    1
    17     7     1    1
    18     1     2    1
    19     2     3    1
    20     3     4    1
    21     4    26    1
    22    26    28    1
    23    28    29    1
    24    29    30   ar
    25    30    31   ar
    26    31    32   ar
    27    32    33   ar
    28    33    34   ar
    29    33    35    1
    30    35    36   am
    31    36    37    2
    32    36    38    1
    33    38    39    1
    34     4     5    1
    35     5     6    1
    36    17    12   ar
    37     6     1    1
    38    23    14   ar
    39    34    29   ar
    40    39    32    1
    41     8     9    1
    42     8    10    1
    43    26    27    1
    44    35    40    1
@<TRIPOS>MOLECULE
*****
 40 44 0 0 0
SMALL
GASTEIGER

@<TRIPOS>ATOM
      1 C         143.8701  142.6084  163.2496 C.3     1  UNL1        0.0162
      2 C         143.5688  143.1104  161.8687 C.3     1  UNL1        0.0028
      3 C         142.5900  144.2304  161.6748 C.3     1  UNL1        0.0158
      4 C         141.9126  144.8484  162.8619 C.3     1  UNL1        0.0543
      5 C         142.2140  144.3463  164.2429 C.3     1  UNL1        0.0158
      6 C         143.1928  143.2263  164.4368 C.3     1  UNL1        0.0028
      7 C         144.8489  141.4884  163.4435 C.3     1  UNL1        0.0737
      8 N         146.3209  141.7489  163.3198 N.3     1  UNL1       -0.3206
      9 H         146.8343  140.8824  163.4810 H       1  UNL1        0.1189
     10 H         146.6023  142.4444  164.0107 H       1  UNL1        0.1189
     11 C         144.3556  140.1078  163.7610 C.3     1  UNL1        0.1245
     12 C         140.7369  139.6621  166.3985 C.ar    1  UNL1        0.1675
     13 C         141.9431  139.8107  165.5193 C.ar    1  UNL1        0.0580
     14 C         141.8539  139.4738  164.0604 C.ar    1  UNL1        0.0833
     15 C         140.5585  138.9883  163.4805 C.ar    1  UNL1        0.0997
     16 C         139.3523  138.8398  164.3597 C.ar    1  UNL1        0.0533
     17 C         139.4415  139.1767  165.8186 C.ar    1  UNL1        0.1754
     18 F         138.2352  139.0281  166.6978 F       1  UNL1       -0.2009
     19 N         140.4694  138.6514  162.0216 N.ar    1  UNL1       -0.2373
     20 C         141.6756  138.8000  161.1425 C.ar    1  UNL1        0.1594
     21 C         142.9711  139.2854  161.7223 C.ar    1  UNL1        0.2803
     22 O         144.1773  139.4340  160.8431 O.2     1  UNL1       -0.2653
     23 N         143.0602  139.6223  163.1812 N.ar    1  UNL1       -0.2913
     24 C         140.1911  141.2545  168.3774 C.3     1  UNL1        0.2526
     25 O         140.8261  139.9990  167.8574 O.3     1  UNL1       -0.4691
     26 N         140.9338  145.9684  162.6681 N.3     1  UNL1       -0.2922
     27 H         141.1158  146.3620  161.7448 H       1  UNL1        0.1236
     28 C         139.4603  145.6976  162.7406 C.3     1  UNL1        0.1353
     29 C         138.9380  144.3156  162.4810 C.ar    1  UNL1        0.1567
     30 N         138.3608  143.5084  163.6058 N.ar    1  UNL1       -0.2245
     31 C         137.8385  142.1265  163.3463 C.ar    1  UNL1        0.1400
     32 C         137.8934  141.5517  161.9618 C.ar    1  UNL1        0.1898
     33 C         138.4706  142.3589  160.8370 C.ar    1  UNL1        0.1715
     34 N         138.9929  143.7409  161.0966 N.ar    1  UNL1       -0.2113
     35 N         138.5254  141.7842  159.4525 N.am    1  UNL1       -0.2638
     36 C         138.0032  140.4022  159.1930 C.2     1  UNL1        0.2718
     37 O         138.0580  139.8274  157.8085 O.2     1  UNL1       -0.2707
     38 C         137.4260  139.5950  160.3178 C.3     1  UNL1        0.2899
     39 O         137.3711  140.1697  161.7022 O.3     1  UNL1       -0.4612
     40 H         138.9043  142.3139  158.7143 H       1  UNL1        0.1565
@<TRIPOS>BOND
     1    24    25    1
     2    25    12    1
     3    12    13   ar
     4    13    14   ar
     5    14    15   ar
     6    15    16   ar
     7    16    17   ar
     8    17    18    1
     9    15    19   ar
    10    19    20   ar
    11    20    21   ar
    12    21    22    2
    13    21    23   ar
    14    23    11    1
    15    11     7    1
    16     7     8    1
    17     7     1    1
    18     1     2    1
    19     2     3    1
    20     3     4    1
    21     4    26    1
    22    26    28    1
    23    28    29    1
    24    29    30   ar
    25    30    31   ar
    26    31    32   ar
    27    32    33   ar
    28    33    34   ar
    29    33    35    1
    30    35    36   am
    31    36    37    2
    32    36    38    1
    33    38    39    1
    34     4     5    1
    35     5     6    1
    36    17    12   ar
    37     6     1    1
    38    23    14   ar
    39    34    29   ar
    40    39    32    1
    41     8     9    1
    42     8    10    1
    43    26    27    1
    44    35    40    1
@<TRIPOS>MOLECULE
*****
 40 44 0 0 0
SMALL
GASTEIGER

@<TRIPOS>ATOM
      1 C         142.0031  138.4966  163.8071 C.3     1  UNL1        0.0162
      2 C         142.3384  138.8328  162.3842 C.3     1  UNL1        0.0028
      3 C         143.5416  139.6739  162.0758 C.3     1  UNL1        0.0158
      4 C         144.4094  140.1788  163.1903 C.3     1  UNL1        0.0543
      5 C         144.0740  139.8425  164.6132 C.3     1  UNL1        0.0158
      6 C         142.8709  139.0015  164.9215 C.3     1  UNL1        0.0028
      7 C         140.8000  137.6556  164.1154 C.3     1  UNL1        0.0737
      8 N         140.8631  136.1663  163.9480 N.3     1  UNL1       -0.3206
      9 H         139.9634  135.7574  164.2003 H       1  UNL1        0.1189
     10 H         141.5909  135.7866  164.5534 H       1  UNL1        0.1189
     11 C         139.5337  138.3038  164.5913 C.3     1  UNL1        0.1245
     12 C         139.6861  142.6082  165.8948 C.ar    1  UNL1        0.1675
     13 C         139.6353  141.1734  165.4603 C.ar    1  UNL1        0.0580
     14 C         138.9256  140.7982  164.1932 C.ar    1  UNL1        0.0833
     15 C         138.2666  141.8577  163.3606 C.ar    1  UNL1        0.0997
     16 C         138.3174  143.2924  163.7952 C.ar    1  UNL1        0.0533
     17 C         139.0272  143.6677  165.0622 C.ar    1  UNL1        0.1754
     18 F         139.0779  145.1025  165.4967 F       1  UNL1       -0.2009
     19 N         137.5569  141.4825  162.0936 N.ar    1  UNL1       -0.2373
     20 C         137.5061  140.0477  161.6590 C.ar    1  UNL1        0.1594
     21 C         138.1650  138.9881  162.4916 C.ar    1  UNL1        0.2803
     22 O         138.1142  137.5533  162.0571 O.2     1  UNL1       -0.2653
     23 N         138.8748  139.3633  163.7587 N.ar    1  UNL1       -0.2913
     24 C         140.4108  142.0335  168.3227 C.3     1  UNL1        0.2526
     25 O         140.3958  142.9834  167.1619 O.3     1  UNL1       -0.4691
     26 N         145.6125  141.0198  162.8819 N.3     1  UNL1       -0.2922
     27 H         145.7751  140.9441  161.8778 H       1  UNL1        0.1236
     28 C         145.6088  142.4832  163.2109 C.3     1  UNL1        0.1353
     29 C         144.3486  143.2828  163.0597 C.ar    1  UNL1        0.1567
     30 N         143.6498  143.8181  164.2743 N.ar    1  UNL1       -0.2245
     31 C         142.3897  144.6176  164.1232 C.ar    1  UNL1        0.1400
     32 C         141.8283  144.8819  162.7574 C.ar    1  UNL1        0.1898
     33 C         142.5271  144.3465  161.5429 C.ar    1  UNL1        0.1715
     34 N         143.7873  143.5470  161.6941 N.ar    1  UNL1       -0.2113
     35 N         141.9658  144.6108  160.1772 N.am    1  UNL1       -0.2638
     36 C         140.7057  145.4103  160.0261 C.2     1  UNL1        0.2718
     37 O         140.1444  145.6745  158.6604 O.2     1  UNL1       -0.2707
     38 C         140.0069  145.9456  161.2407 C.3     1  UNL1        0.2899
     39 O         140.5682  145.6814  162.6063 O.3     1  UNL1       -0.4612
     40 H         142.4245  144.2594  159.3801 H       1  UNL1        0.1565
@<TRIPOS>BOND
     1    24    25    1
     2    25    12    1
     3    12    13   ar
     4    13    14   ar
     5    14    15   ar
     6    15    16   ar
     7    16    17   ar
     8    17    18    1
     9    15    19   ar
    10    19    20   ar
    11    20    21   ar
    12    21    22    2
    13    21    23   ar
    14    23    11    1
    15    11     7    1
    16     7     8    1
    17     7     1    1
    18     1     2    1
    19     2     3    1
    20     3     4    1
    21     4    26    1
    22    26    28    1
    23    28    29    1
    24    29    30   ar
    25    30    31   ar
    26    31    32   ar
    27    32    33   ar
    28    33    34   ar
    29    33    35    1
    30    35    36   am
    31    36    37    2
    32    36    38    1
    33    38    39    1
    34     4     5    1
    35     5     6    1
    36    17    12   ar
    37     6     1    1
    38    23    14   ar
    39    34    29   ar
    40    39    32    1
    41     8     9    1
    42     8    10    1
    43    26    27    1
    44    35    40    1
@<TRIPOS>MOLECULE
*****
 40 44 0 0 0
SMALL
GASTEIGER

@<TRIPOS>ATOM
      1 C         138.3361  140.1456  164.3236 C.3     1  UNL1        0.0162
      2 C         138.7264  141.3188  165.1728 C.3     1  UNL1        0.0028
      3 C         138.4852  142.7148  164.6799 C.3     1  UNL1        0.0158
      4 C         137.8536  142.9376  163.3377 C.3     1  UNL1        0.0543
      5 C         137.4633  141.7643  162.4884 C.3     1  UNL1        0.0158
      6 C         137.7045  140.3684  162.9814 C.3     1  UNL1        0.0028
      7 C         138.5773  138.7496  164.8166 C.3     1  UNL1        0.0737
      8 N         138.2372  138.3845  166.2311 N.3     1  UNL1       -0.3206
      9 H         138.4646  137.4034  166.3931 H       1  UNL1        0.1189
     10 H         137.2408  138.5333  166.3905 H       1  UNL1        0.1189
     11 C         139.1587  137.7187  163.8949 C.3     1  UNL1        0.1245
     12 C         143.2228  138.5605  165.6342 C.ar    1  UNL1        0.1675
     13 C         141.8681  138.2799  165.0544 C.ar    1  UNL1        0.0580
     14 C         141.6557  138.3595  163.5717 C.ar    1  UNL1        0.0833
     15 C         142.7980  138.7197  162.6687 C.ar    1  UNL1        0.0997
     16 C         144.1526  139.0003  163.2484 C.ar    1  UNL1        0.0533
     17 C         144.3650  138.9207  164.7312 C.ar    1  UNL1        0.1754
     18 F         145.7198  139.2013  165.3109 F       1  UNL1       -0.2009
     19 N         142.5856  138.7993  161.1859 N.ar    1  UNL1       -0.2373
     20 C         141.2310  138.5187  160.6062 C.ar    1  UNL1        0.1594
     21 C         140.0886  138.1585  161.5092 C.ar    1  UNL1        0.2803
     22 O         138.7340  137.8779  160.9294 O.2     1  UNL1       -0.2653
     23 N         140.3010  138.0789  162.9919 N.ar    1  UNL1       -0.2913
     24 C         142.7187  139.4318  168.0293 C.3     1  UNL1        0.2526
     25 O         143.4352  138.4809  167.1169 O.3     1  UNL1       -0.4691
     26 N         137.6124  144.3335  162.8447 N.3     1  UNL1       -0.2922
     27 H         137.0699  144.8105  163.5649 H       1  UNL1        0.1236
     28 C         138.7738  145.2242  162.5164 C.3     1  UNL1        0.1353
     29 C         139.9509  144.6756  161.7655 C.ar    1  UNL1        0.1567
     30 N         139.9582  144.6936  160.2657 N.ar    1  UNL1       -0.2245
     31 C         141.1351  144.1451  159.5148 C.ar    1  UNL1        0.1400
     32 C         142.3049  143.5786  160.2638 C.ar    1  UNL1        0.1898
     33 C         142.2975  143.5606  161.7636 C.ar    1  UNL1        0.1715
     34 N         141.1205  144.1091  162.5145 N.ar    1  UNL1       -0.2113
     35 N         143.4672  142.9941  162.5126 N.am    1  UNL1       -0.2638
     36 C         144.6441  142.4456  161.7618 C.2     1  UNL1        0.2718
     37 O         145.8138  141.8791  162.5107 O.2     1  UNL1       -0.2707
     38 C         144.6514  142.4636  160.2619 C.3     1  UNL1        0.2899
     39 O         143.4818  143.0301  159.5129 O.3     1  UNL1       -0.4612
     40 H         143.4624  142.9823  163.4971 H       1  UNL1        0.1565
@<TRIPOS>BOND
     1    24    25    1
     2    25    12    1
     3    12    13   ar
     4    13    14   ar
     5    14    15   ar
     6    15    16   ar
     7    16    17   ar
     8    17    18    1
     9    15    19   ar
    10    19    20   ar
    11    20    21   ar
    12    21    22    2
    13    21    23   ar
    14    23    11    1
    15    11     7    1
    16     7     8    1
    17     7     1    1
    18     1     2    1
    19     2     3    1
    20     3     4    1
    21     4    26    1
    22    26    28    1
    23    28    29    1
    24    29    30   ar
    25    30    31   ar
    26    31    32   ar
    27    32    33   ar
    28    33    34   ar
    29    33    35    1
    30    35    36   am
    31    36    37    2
    32    36    38    1
    33    38    39    1
    34     4     5    1
    35     5     6    1
    36    17    12   ar
    37     6     1    1
    38    23    14   ar
    39    34    29   ar
    40    39    32    1
    41     8     9    1
    42     8    10    1
    43    26    27    1
    44    35    40    1
@<TRIPOS>MOLECULE
*****
 40 44 0 0 0
SMALL
GASTEIGER

@<TRIPOS>ATOM
      1 C         141.4301  144.7883  162.8199 C.3     1  UNL1        0.0162
      2 C         141.8664  144.0889  161.5667 C.3     1  UNL1        0.0028
      3 C         143.2185  143.4426  161.5004 C.3     1  UNL1        0.0158
      4 C         144.1341  143.4958  162.6873 C.3     1  UNL1        0.0543
      5 C         143.6977  144.1952  163.9405 C.3     1  UNL1        0.0158
      6 C         142.3457  144.8414  164.0068 C.3     1  UNL1        0.0028
      7 C         140.0781  145.4345  162.8861 C.3     1  UNL1        0.0737
      8 N         139.7439  146.5706  161.9655 N.3     1  UNL1       -0.3206
      9 H         138.7909  146.8860  162.1467 H       1  UNL1        0.1189
     10 H         139.8202  146.2577  160.9977 H       1  UNL1        0.1189
     11 C         139.0602  144.9446  163.8731 C.3     1  UNL1        0.1245
     12 C         140.3341  142.5640  167.4731 C.ar    1  UNL1        0.1675
     13 C         139.9094  143.3575  166.2731 C.ar    1  UNL1        0.0580
     14 C         139.1645  142.6880  165.1565 C.ar    1  UNL1        0.0833
     15 C         138.8441  141.2251  165.2399 C.ar    1  UNL1        0.0997
     16 C         139.2687  140.4316  166.4399 C.ar    1  UNL1        0.0533
     17 C         140.0137  141.1010  167.5565 C.ar    1  UNL1        0.1754
     18 F         140.4383  140.3074  168.7565 F       1  UNL1       -0.2009
     19 N         138.0991  140.5556  164.1233 N.ar    1  UNL1       -0.2373
     20 C         137.6745  141.3491  162.9233 C.ar    1  UNL1        0.1594
     21 C         137.9949  142.8121  162.8399 C.ar    1  UNL1        0.2803
     22 O         137.5702  143.6056  161.6399 O.2     1  UNL1       -0.2653
     23 N         138.7398  143.4816  163.9565 N.ar    1  UNL1       -0.2913
     24 C         140.3875  143.5127  169.8912 C.3     1  UNL1        0.2526
     25 O         141.0790  143.2335  168.5897 O.3     1  UNL1       -0.4691
     26 N         145.4861  142.8496  162.6210 N.3     1  UNL1       -0.2922
     27 H         146.0953  143.3765  163.2468 H       1  UNL1        0.1236
     28 C         145.6439  141.4019  162.9806 C.3     1  UNL1        0.1353
     29 C         144.5426  140.4295  162.6775 C.ar    1  UNL1        0.1567
     30 N         144.4148  139.8462  161.3015 N.ar    1  UNL1       -0.2245
     31 C         143.3136  138.8738  160.9984 C.ar    1  UNL1        0.1400
     32 C         142.3402  138.4848  162.0713 C.ar    1  UNL1        0.1898
     33 C         142.4680  139.0681  163.4473 C.ar    1  UNL1        0.1715
     34 N         143.5692  140.0405  163.7504 N.ar    1  UNL1       -0.2113
     35 N         141.4946  138.6791  164.5202 N.am    1  UNL1       -0.2638
     36 C         140.3934  137.7067  164.2171 C.2     1  UNL1        0.2718
     37 O         139.4200  137.3176  165.2900 O.2     1  UNL1       -0.2707
     38 C         140.2656  137.1234  162.8411 C.3     1  UNL1        0.2899
     39 O         141.2390  137.5124  161.7682 O.3     1  UNL1       -0.4612
     40 H         141.5785  139.0619  165.4233 H       1  UNL1        0.1565
@<TRIPOS>BOND
     1    24    25    1
     2    25    12    1
     3    12    13   ar
     4    13    14   ar
     5    14    15   ar
     6    15    16   ar
     7    16    17   ar
     8    17    18    1
     9    15    19   ar
    10    19    20   ar
    11    20    21   ar
    12    21    22    2
    13    21    23   ar
    14    23    11    1
    15    11     7    1
    16     7     8    1
    17     7     1    1
    18     1     2    1
    19     2     3    1
    20     3     4    1
    21     4    26    1
    22    26    28    1
    23    28    29    1
    24    29    30   ar
    25    30    31   ar
    26    31    32   ar
    27    32    33   ar
    28    33    34   ar
    29    33    35    1
    30    35    36   am
    31    36    37    2
    32    36    38    1
    33    38    39    1
    34     4     5    1
    35     5     6    1
    36    17    12   ar
    37     6     1    1
    38    23    14   ar
    39    34    29   ar
    40    39    32    1
    41     8     9    1
    42     8    10    1
    43    26    27    1
    44    35    40    1
@<TRIPOS>MOLECULE
*****
 40 44 0 0 0
SMALL
GASTEIGER

@<TRIPOS>ATOM
      1 C         143.8485  142.6740  162.5109 C.3     1  UNL1        0.0162
      2 C         142.9237  142.8111  161.3379 C.3     1  UNL1        0.0028
      3 C         141.9101  143.9164  161.3070 C.3     1  UNL1        0.0158
      4 C         141.8212  144.8846  162.4492 C.3     1  UNL1        0.0543
      5 C         142.7460  144.7475  163.6223 C.3     1  UNL1        0.0158
      6 C         143.7596  143.6423  163.6531 C.3     1  UNL1        0.0028
      7 C         144.8620  141.5688  162.5417 C.3     1  UNL1        0.0737
      8 N         146.2832  141.8647  162.9197 N.3     1  UNL1       -0.3206
      9 H         146.8296  141.0040  162.8883 H       1  UNL1        0.1189
     10 H         146.3107  142.2506  163.8635 H       1  UNL1        0.1189
     11 C         144.4545  140.1675  162.1946 C.3     1  UNL1        0.1245
     12 C         140.3582  138.8996  160.8299 C.ar    1  UNL1        0.1675
     13 C         141.7236  139.3222  161.2848 C.ar    1  UNL1        0.0580
     14 C         142.1960  138.9725  162.6648 C.ar    1  UNL1        0.0833
     15 C         141.3030  138.2001  163.5900 C.ar    1  UNL1        0.0997
     16 C         139.9376  137.7775  163.1351 C.ar    1  UNL1        0.0533
     17 C         139.4652  138.1272  161.7551 C.ar    1  UNL1        0.1754
     18 F         138.0997  137.7045  161.3002 F       1  UNL1       -0.2009
     19 N         141.7754  137.8504  164.9700 N.ar    1  UNL1       -0.2373
     20 C         143.1408  138.2730  165.4249 C.ar    1  UNL1        0.1594
     21 C         144.0339  139.0454  164.4998 C.ar    1  UNL1        0.2803
     22 O         145.3993  139.4680  164.9547 O.2     1  UNL1       -0.2653
     23 N         143.5615  139.3951  163.1197 N.ar    1  UNL1       -0.2913
     24 C         138.7699  140.2347  159.2664 C.3     1  UNL1        0.2526
     25 O         139.8858  139.2493  159.4499 O.3     1  UNL1       -0.4691
     26 N         140.8076  145.9899  162.4184 N.3     1  UNL1       -0.2922
     27 H         140.8903  146.4399  161.5067 H       1  UNL1        0.1236
     28 C         139.3537  145.6798  162.6180 C.3     1  UNL1        0.1353
     29 C         138.9327  144.3092  163.0586 C.ar    1  UNL1        0.1567
     30 N         137.9545  143.5243  162.2357 N.ar    1  UNL1       -0.2245
     31 C         137.5334  142.1537  162.6763 C.ar    1  UNL1        0.1400
     32 C         138.0906  141.5679  163.9399 C.ar    1  UNL1        0.1898
     33 C         139.0688  142.3528  164.7628 C.ar    1  UNL1        0.1715
     34 N         139.4898  143.7234  164.3221 N.ar    1  UNL1       -0.2113
     35 N         139.6259  141.7670  166.0263 N.am    1  UNL1       -0.2638
     36 C         139.2049  140.3965  166.4668 C.2     1  UNL1        0.2718
     37 O         139.7620  139.8106  167.7304 O.2     1  UNL1       -0.2707
     38 C         138.2267  139.6116  165.6439 C.3     1  UNL1        0.2899
     39 O         137.6696  140.1973  164.3804 O.3     1  UNL1       -0.4612
     40 H         140.2679  142.2822  166.5664 H       1  UNL1        0.1565
@<TRIPOS>BOND
     1    24    25    1
     2    25    12    1
     3    12    13   ar
     4    13    14   ar
     5    14    15   ar
     6    15    16   ar
     7    16    17   ar
     8    17    18    1
     9    15    19   ar
    10    19    20   ar
    11    20    21   ar
    12    21    22    2
    13    21    23   ar
    14    23    11    1
    15    11     7    1
    16     7     8    1
    17     7     1    1
    18     1     2    1
    19     2     3    1
    20     3     4    1
    21     4    26    1
    22    26    28    1
    23    28    29    1
    24    29    30   ar
    25    30    31   ar
    26    31    32   ar
    27    32    33   ar
    28    33    34   ar
    29    33    35    1
    30    35    36   am
    31    36    37    2
    32    36    38    1
    33    38    39    1
    34     4     5    1
    35     5     6    1
    36    17    12   ar
    37     6     1    1
    38    23    14   ar
    39    34    29   ar
    40    39    32    1
    41     8     9    1
    42     8    10    1
    43    26    27    1
    44    35    40    1
@<TRIPOS>MOLECULE
*****
 40 44 0 0 0
SMALL
GASTEIGER

@<TRIPOS>ATOM
      1 C         138.1995  140.0028  162.7816 C.3     1  UNL1        0.0162
      2 C         138.2151  140.7441  161.4777 C.3     1  UNL1        0.0028
      3 C         138.0085  142.2297  161.4571 C.3     1  UNL1        0.0158
      4 C         137.7862  142.9739  162.7403 C.3     1  UNL1        0.0543
      5 C         137.7707  142.2325  164.0443 C.3     1  UNL1        0.0158
      6 C         137.9773  140.7470  164.0649 C.3     1  UNL1        0.0028
      7 C         138.4062  138.5172  162.8022 C.3     1  UNL1        0.0737
      8 N         137.7035  137.6483  161.8016 N.3     1  UNL1       -0.3206
      9 H         137.9574  136.6732  161.9605 H       1  UNL1        0.1189
     10 H         137.9807  137.9226  160.8591 H       1  UNL1        0.1189
     11 C         139.3156  137.9006  163.8235 C.3     1  UNL1        0.1245
     12 C         141.0706  139.8237  167.4938 C.ar    1  UNL1        0.1675
     13 C         140.4856  139.1827  166.2704 C.ar    1  UNL1        0.0580
     14 C         141.3540  138.9114  165.0777 C.ar    1  UNL1        0.0833
     15 C         142.8073  139.2812  165.1085 C.ar    1  UNL1        0.0997
     16 C         143.3923  139.9223  166.3320 C.ar    1  UNL1        0.0533
     17 C         142.5239  140.1935  167.5246 C.ar    1  UNL1        0.1754
     18 F         143.1090  140.8346  168.7481 F       1  UNL1       -0.2009
     19 N         143.6757  139.0100  163.9159 N.ar    1  UNL1       -0.2373
     20 C         143.0907  138.3689  162.6925 C.ar    1  UNL1        0.1594
     21 C         141.6373  137.9991  162.6616 C.ar    1  UNL1        0.2803
     22 O         141.0523  137.3581  161.4382 O.2     1  UNL1       -0.2653
     23 N         140.7689  138.2704  163.8543 N.ar    1  UNL1       -0.2913
     24 C         140.0042  141.5026  169.1654 C.3     1  UNL1        0.2526
     25 O         140.2022  140.0950  168.6864 O.3     1  UNL1       -0.4691
     26 N         137.5796  144.4594  162.7197 N.3     1  UNL1       -0.2922
     27 H         137.1048  144.7027  163.5891 H       1  UNL1        0.1236
     28 C         138.7584  145.3790  162.5981 C.3     1  UNL1        0.1353
     29 C         140.0780  144.8478  162.1220 C.ar    1  UNL1        0.1567
     30 N         140.4438  144.9398  160.6702 N.ar    1  UNL1       -0.2245
     31 C         141.7633  144.4087  160.1941 C.ar    1  UNL1        0.1400
     32 C         142.7171  143.7855  161.1698 C.ar    1  UNL1        0.1898
     33 C         142.3513  143.6934  162.6216 C.ar    1  UNL1        0.1715
     34 N         141.0317  144.2246  163.0977 N.ar    1  UNL1       -0.2113
     35 N         143.3050  143.0703  163.5973 N.am    1  UNL1       -0.2638
     36 C         144.6245  142.5392  163.1212 C.2     1  UNL1        0.2718
     37 O         145.5784  141.9160  164.0969 O.2     1  UNL1       -0.2707
     38 C         144.9903  142.6312  161.6694 C.3     1  UNL1        0.2899
     39 O         144.0366  143.2544  160.6937 O.3     1  UNL1       -0.4612
     40 H         143.0649  143.0099  164.5501 H       1  UNL1        0.1565
@<TRIPOS>BOND
     1    24    25    1
     2    25    12    1
     3    12    13   ar
     4    13    14   ar
     5    14    15   ar
     6    15    16   ar
     7    16    17   ar
     8    17    18    1
     9    15    19   ar
    10    19    20   ar
    11    20    21   ar
    12    21    22    2
    13    21    23   ar
    14    23    11    1
    15    11     7    1
    16     7     8    1
    17     7     1    1
    18     1     2    1
    19     2     3    1
    20     3     4    1
    21     4    26    1
    22    26    28    1
    23    28    29    1
    24    29    30   ar
    25    30    31   ar
    26    31    32   ar
    27    32    33   ar
    28    33    34   ar
    29    33    35    1
    30    35    36   am
    31    36    37    2
    32    36    38    1
    33    38    39    1
    34     4     5    1
    35     5     6    1
    36    17    12   ar
    37     6     1    1
    38    23    14   ar
    39    34    29   ar
    40    39    32    1
    41     8     9    1
    42     8    10    1
    43    26    27    1
    44    35    40    1
@<TRIPOS>MOLECULE
*****
 40 44 0 0 0
SMALL
GASTEIGER

@<TRIPOS>ATOM
      1 C         142.4986  143.8598  160.6837 C.3     1  UNL1        0.0162
      2 C         142.8165  144.2584  162.0944 C.3     1  UNL1        0.0028
      3 C         143.9490  143.5979  162.8233 C.3     1  UNL1        0.0158
      4 C         144.7636  142.5388  162.1415 C.3     1  UNL1        0.0543
      5 C         144.4456  142.1402  160.7307 C.3     1  UNL1        0.0158
      6 C         143.3132  142.8007  160.0019 C.3     1  UNL1        0.0028
      7 C         141.3662  144.5202  159.9549 C.3     1  UNL1        0.0737
      8 N         141.5456  145.8924  159.3760 N.3     1  UNL1       -0.3206
      9 H         140.6815  146.1845  158.9195 H       1  UNL1        0.1189
     10 H         142.3027  145.8768  158.6927 H       1  UNL1        0.1189
     11 C         140.0543  143.8086  159.8048 C.3     1  UNL1        0.1245
     12 C         138.9513  139.5171  160.5902 C.ar    1  UNL1        0.1675
     13 C         139.3189  140.9476  160.3284 C.ar    1  UNL1        0.0580
     14 C         138.8840  142.0204  161.2823 C.ar    1  UNL1        0.0833
     15 C         138.0814  141.6628  162.4980 C.ar    1  UNL1        0.0997
     16 C         137.7137  140.2323  162.7597 C.ar    1  UNL1        0.0533
     17 C         138.1487  139.1595  161.8058 C.ar    1  UNL1        0.1754
     18 F         137.7810  137.7290  162.0677 F       1  UNL1       -0.2009
     19 N         137.6464  142.7356  163.4518 N.ar    1  UNL1       -0.2373
     20 C         138.0141  144.1660  163.1901 C.ar    1  UNL1        0.1594
     21 C         138.8167  144.5237  161.9743 C.ar    1  UNL1        0.2803
     22 O         139.1844  145.9542  161.7126 O.2     1  UNL1       -0.2653
     23 N         139.2517  143.4509  161.0204 N.ar    1  UNL1       -0.2913
     24 C         139.6932  138.7891  158.2091 C.3     1  UNL1        0.2526
     25 O         139.3862  138.4443  159.6363 O.3     1  UNL1       -0.4691
     26 N         145.8960  141.8783  162.8703 N.3     1  UNL1       -0.2922
     27 H         146.4735  142.6254  163.2562 H       1  UNL1        0.1236
     28 C         145.6110  140.9269  163.9944 C.3     1  UNL1        0.1353
     29 C         144.3518  140.1118  163.9861 C.ar    1  UNL1        0.1567
     30 N         144.1607  139.0374  162.9570 N.ar    1  UNL1       -0.2245
     31 C         142.9016  138.2223  162.9486 C.ar    1  UNL1        0.1400
     32 C         141.8334  138.4816  163.9694 C.ar    1  UNL1        0.1898
     33 C         142.0245  139.5560  164.9985 C.ar    1  UNL1        0.1715
     34 N         143.2838  140.3712  165.0068 N.ar    1  UNL1       -0.2113
     35 N         140.9565  139.8154  166.0192 N.am    1  UNL1       -0.2638
     36 C         139.6973  139.0003  166.0109 C.2     1  UNL1        0.2718
     37 O         138.6292  139.2596  167.0316 O.2     1  UNL1       -0.2707
     38 C         139.5062  137.9259  164.9818 C.3     1  UNL1        0.2899
     39 O         140.5743  137.6665  163.9610 O.3     1  UNL1       -0.4612
     40 H         141.0819  140.5206  166.6947 H       1  UNL1        0.1565
@<TRIPOS>BOND
     1    24    25    1
     2    25    12    1
     3    12    13   ar
     4    13    14   ar
     5    14    15   ar
     6    15    16   ar
     7    16    17   ar
     8    17    18    1
     9    15    19   ar
    10    19    20   ar
    11    20    21   ar
    12    21    22    2
    13    21    23   ar
    14    23    11    1
    15    11     7    1
    16     7     8    1
    17     7     1    1
    18     1     2    1
    19     2     3    1
    20     3     4    1
    21     4    26    1
    22    26    28    1
    23    28    29    1
    24    29    30   ar
    25    30    31   ar
    26    31    32   ar
    27    32    33   ar
    28    33    34   ar
    29    33    35    1
    30    35    36   am
    31    36    37    2
    32    36    38    1
    33    38    39    1
    34     4     5    1
    35     5     6    1
    36    17    12   ar
    37     6     1    1
    38    23    14   ar
    39    34    29   ar
    40    39    32    1
    41     8     9    1
    42     8    10    1
    43    26    27    1
    44    35    40    1
