@<TRIPOS>MOLECULE
*****
 25 27 0 0 0
SMALL
GASTEIGER

@<TRIPOS>ATOM
      1 C         139.2994  140.5718  169.5687 C.ar    1  UNL1       -0.0001
      2 C         139.7665  141.9690  169.8504 C.ar    1  UNL1       -0.0003
      3 C         140.5686  142.7129  168.8241 C.ar    1  UNL1       -0.0032
      4 C         140.9037  142.0594  167.5161 C.ar    1  UNL1       -0.0088
      5 C         140.4365  140.6621  167.2345 C.ar    1  UNL1       -0.0088
      6 C         139.6344  139.9183  168.2608 C.ar    1  UNL1       -0.0032
      7 C         140.9166  140.2799  165.8657 C.3     1  UNL1        0.0991
      8 N         141.6804  141.4410  165.3014 N.3     1  UNL1       -0.2652
      9 C         141.6724  142.5408  166.3215 C.3     1  UNL1        0.0991
     10 C         137.2015  139.1788  170.2081 C.2     1  UNL1        0.0598
     11 C         138.4972  139.8279  170.5950 C.2     1  UNL1        0.0047
     12 O         136.5112  136.9427  171.3364 O.2     1  UNL1       -0.2681
     13 C         136.3994  138.4350  171.2344 C.2     1  UNL1        0.2679
     14 N         135.4853  139.1836  172.1587 N.am    1  UNL1       -0.1934
     15 O         134.6832  138.4398  173.1850 O.3     1  UNL1       -0.2949
     16 H         135.4119  140.1631  172.0917 H       1  UNL1        0.1825
     17 H         134.8714  137.4907  173.1168 H       1  UNL1        0.2414
     18 C         142.3370  141.4931  163.9537 C.3     1  UNL1        0.0727
     19 C         141.6231  142.1250  162.7957 C.3     1  UNL1        0.0173
     20 C         140.2896  142.7796  163.0034 C.3     1  UNL1        0.0014
     21 C         140.2170  144.2235  163.4030 C.3     1  UNL1        0.0000
     22 C         138.8834  144.8781  163.6108 C.3     1  UNL1        0.0000
     23 C         137.6224  144.0887  163.4189 C.3     1  UNL1        0.0000
     24 C         137.6950  142.6447  163.0192 C.3     1  UNL1        0.0000
     25 C         139.0286  141.9902  162.8115 C.3     1  UNL1        0.0000
@<TRIPOS>BOND
     1    12    13    2
     2    13    10    1
     3    10    11    2
     4    11     1    1
     5     1     2   ar
     6     2     3   ar
     7     3     4   ar
     8     4     5   ar
     9     5     6   ar
    10     5     7    1
    11     7     8    1
    12     8    18    1
    13    18    19    1
    14    19    20    1
    15    20    21    1
    16    21    22    1
    17    22    23    1
    18    23    24    1
    19    24    25    1
    20     8     9    1
    21    13    14   am
    22    14    15    1
    23     6     1   ar
    24    25    20    1
    25     9     4    1
    26    14    16    1
    27    15    17    1
@<TRIPOS>MOLECULE
*****
 25 27 0 0 0
SMALL
GASTEIGER

@<TRIPOS>ATOM
      1 C         139.9978  140.5778  167.4468 C.ar    1  UNL1       -0.0001
      2 C         139.0720  139.6545  166.7118 C.ar    1  UNL1       -0.0003
      3 C         138.3928  140.1163  165.4567 C.ar    1  UNL1       -0.0032
      4 C         138.6394  141.5014  164.9365 C.ar    1  UNL1       -0.0088
      5 C         139.5652  142.4247  165.6715 C.ar    1  UNL1       -0.0088
      6 C         140.2444  141.9629  166.9267 C.ar    1  UNL1       -0.0032
      7 C         139.6138  143.7243  164.9239 C.3     1  UNL1        0.0991
      8 N         138.7179  143.6041  163.7268 N.3     1  UNL1       -0.2652
      9 C         138.1157  142.2303  163.7346 C.3     1  UNL1        0.0991
     10 C         141.5878  141.0458  169.4475 C.2     1  UNL1        0.0598
     11 C         140.6771  140.1160  168.7019 C.2     1  UNL1        0.0047
     12 O         141.7487  141.0216  172.0405 O.2     1  UNL1       -0.2681
     13 C         142.2670  140.5840  170.7026 C.2     1  UNL1        0.2679
     14 N         143.4647  139.6845  170.6199 N.am    1  UNL1       -0.1934
     15 O         144.1439  139.2227  171.8750 O.3     1  UNL1       -0.2949
     16 H         143.8048  139.3973  169.7418 H       1  UNL1        0.1825
     17 H         143.6863  139.5938  172.6456 H       1  UNL1        0.2414
     18 C         138.4681  144.6704  162.7018 C.3     1  UNL1        0.0727
     19 C         139.5876  145.5687  162.2660 C.3     1  UNL1        0.0173
     20 C         141.0031  145.0736  162.3000 C.3     1  UNL1        0.0014
     21 C         141.9278  145.5202  163.3934 C.3     1  UNL1        0.0000
     22 C         143.3433  145.0251  163.4274 C.3     1  UNL1        0.0000
     23 C         143.8341  144.0834  162.3680 C.3     1  UNL1        0.0000
     24 C         142.9094  143.6367  161.2747 C.3     1  UNL1        0.0000
     25 C         141.4939  144.1319  161.2407 C.3     1  UNL1        0.0000
@<TRIPOS>BOND
     1    12    13    2
     2    13    10    1
     3    10    11    2
     4    11     1    1
     5     1     2   ar
     6     2     3   ar
     7     3     4   ar
     8     4     5   ar
     9     5     6   ar
    10     5     7    1
    11     7     8    1
    12     8    18    1
    13    18    19    1
    14    19    20    1
    15    20    21    1
    16    21    22    1
    17    22    23    1
    18    23    24    1
    19    24    25    1
    20     8     9    1
    21    13    14   am
    22    14    15    1
    23     6     1   ar
    24    25    20    1
    25     9     4    1
    26    14    16    1
    27    15    17    1
@<TRIPOS>MOLECULE
*****
 25 27 0 0 0
SMALL
GASTEIGER

@<TRIPOS>ATOM
      1 C         139.1400  140.4060  169.6698 C.ar    1  UNL1       -0.0001
      2 C         139.5827  141.7832  170.0662 C.ar    1  UNL1       -0.0003
      3 C         140.3119  142.6489  169.0820 C.ar    1  UNL1       -0.0032
      4 C         140.5985  142.1374  167.7014 C.ar    1  UNL1       -0.0088
      5 C         140.1558  140.7602  167.3050 C.ar    1  UNL1       -0.0088
      6 C         139.4266  139.8944  168.2892 C.ar    1  UNL1       -0.0032
      7 C         140.5768  140.5290  165.8839 C.3     1  UNL1        0.0991
      8 N         141.2797  141.7634  165.4021 N.3     1  UNL1       -0.2652
      9 C         141.2931  142.7575  166.5253 C.3     1  UNL1        0.0991
     10 C         136.9837  139.1544  170.4004 C.2     1  UNL1        0.0598
     11 C         138.4108  139.5402  170.6541 C.2     1  UNL1        0.0047
     12 O         136.5489  136.8195  171.4535 O.2     1  UNL1       -0.2681
     13 C         136.2544  138.2887  171.3846 C.2     1  UNL1        0.2679
     14 N         135.2307  138.8922  172.2999 N.am    1  UNL1       -0.1934
     15 O         134.5014  138.0264  173.2842 O.3     1  UNL1       -0.2949
     16 H         135.0374  139.8565  172.2547 H       1  UNL1        0.1825
     17 H         134.8083  137.1103  173.1984 H       1  UNL1        0.2414
     18 C         141.8662  141.9680  164.0367 C.3     1  UNL1        0.0727
     19 C         142.3902  143.3163  163.6398 C.3     1  UNL1        0.0173
     20 C         141.6213  144.1641  162.6702 C.3     1  UNL1        0.0014
     21 C         141.9819  144.1529  161.2142 C.3     1  UNL1        0.0000
     22 C         141.2131  145.0007  160.2446 C.3     1  UNL1        0.0000
     23 C         140.0836  145.8597  160.7310 C.3     1  UNL1        0.0000
     24 C         139.7230  145.8708  162.1870 C.3     1  UNL1        0.0000
     25 C         140.4919  145.0230  163.1566 C.3     1  UNL1        0.0000
@<TRIPOS>BOND
     1    12    13    2
     2    13    10    1
     3    10    11    2
     4    11     1    1
     5     1     2   ar
     6     2     3   ar
     7     3     4   ar
     8     4     5   ar
     9     5     6   ar
    10     5     7    1
    11     7     8    1
    12     8    18    1
    13    18    19    1
    14    19    20    1
    15    20    21    1
    16    21    22    1
    17    22    23    1
    18    23    24    1
    19    24    25    1
    20     8     9    1
    21    13    14   am
    22    14    15    1
    23     6     1   ar
    24    25    20    1
    25     9     4    1
    26    14    16    1
    27    15    17    1
@<TRIPOS>MOLECULE
*****
 25 27 0 0 0
SMALL
GASTEIGER

@<TRIPOS>ATOM
      1 C         142.2445  139.7691  167.5619 C.ar    1  UNL1       -0.0001
      2 C         143.2880  138.9631  166.8467 C.ar    1  UNL1       -0.0003
      3 C         142.9358  138.2290  165.5870 C.ar    1  UNL1       -0.0032
      4 C         141.5400  138.3008  165.0424 C.ar    1  UNL1       -0.0088
      5 C         140.4965  139.1067  165.7575 C.ar    1  UNL1       -0.0088
      6 C         140.8488  139.8409  167.0173 C.ar    1  UNL1       -0.0032
      7 C         139.2141  138.9921  164.9878 C.3     1  UNL1        0.0991
      8 N         139.4651  138.1154  163.7969 N.3     1  UNL1       -0.2652
      9 C         140.9026  137.6881  163.8307 C.3     1  UNL1        0.0991
     10 C         141.7694  141.6735  169.2640 C.2     1  UNL1        0.0598
     11 C         142.5968  140.5032  168.8216 C.2     1  UNL1        0.0047
     12 O         141.3396  142.1605  171.7795 O.2     1  UNL1       -0.2681
     13 C         142.1217  142.4077  170.5237 C.2     1  UNL1        0.2679
     14 N         143.2561  143.3891  170.5276 N.am    1  UNL1       -0.1934
     15 O         143.6084  144.1232  171.7873 O.3     1  UNL1       -0.2949
     16 H         143.7695  143.5514  169.7033 H       1  UNL1        0.1825
     17 H         143.0097  143.8490  172.4996 H       1  UNL1        0.2414
     18 C         138.4559  137.7329  162.7551 C.3     1  UNL1        0.0727
     19 C         137.8245  138.7903  161.8988 C.3     1  UNL1        0.0173
     20 C         138.2570  140.2204  162.0320 C.3     1  UNL1        0.0014
     21 C         137.4124  141.1906  162.8036 C.3     1  UNL1        0.0000
     22 C         137.8449  142.6207  162.9368 C.3     1  UNL1        0.0000
     23 C         139.1220  143.0806  162.2984 C.3     1  UNL1        0.0000
     24 C         139.9665  142.1104  161.5267 C.3     1  UNL1        0.0000
     25 C         139.5340  140.6803  161.3936 C.3     1  UNL1        0.0000
@<TRIPOS>BOND
     1    12    13    2
     2    13    10    1
     3    10    11    2
     4    11     1    1
     5     1     2   ar
     6     2     3   ar
     7     3     4   ar
     8     4     5   ar
     9     5     6   ar
    10     5     7    1
    11     7     8    1
    12     8    18    1
    13    18    19    1
    14    19    20    1
    15    20    21    1
    16    21    22    1
    17    22    23    1
    18    23    24    1
    19    24    25    1
    20     8     9    1
    21    13    14   am
    22    14    15    1
    23     6     1   ar
    24    25    20    1
    25     9     4    1
    26    14    16    1
    27    15    17    1
@<TRIPOS>MOLECULE
*****
 25 27 0 0 0
SMALL
GASTEIGER

@<TRIPOS>ATOM
      1 C         138.5683  139.3514  165.9838 C.ar    1  UNL1       -0.0001
      2 C         138.8020  138.0917  165.2038 C.ar    1  UNL1       -0.0003
      3 C         138.8460  138.1347  163.7051 C.ar    1  UNL1       -0.0032
      4 C         138.6563  139.4376  162.9864 C.ar    1  UNL1       -0.0088
      5 C         138.4227  140.6973  163.7663 C.ar    1  UNL1       -0.0088
      6 C         138.3787  140.6542  165.2651 C.ar    1  UNL1       -0.0032
      7 C         138.2705  141.8257  162.7898 C.3     1  UNL1        0.0991
      8 N         138.4101  141.2633  161.4062 N.3     1  UNL1       -0.2652
      9 C         138.6485  139.7873  161.5277 C.3     1  UNL1        0.0991
     10 C         139.4230  140.2017  168.2852 C.2     1  UNL1        0.0598
     11 C         138.5244  139.3083  167.4826 C.2     1  UNL1        0.0047
     12 O         138.0991  139.8163  170.4872 O.2     1  UNL1       -0.2681
     13 C         139.3790  140.1586  169.7840 C.2     1  UNL1        0.2679
     14 N         140.6151  140.4578  170.5795 N.am    1  UNL1       -0.1934
     15 O         140.5711  140.4147  172.0782 O.3     1  UNL1       -0.2949
     16 H         141.4551  140.6825  170.1179 H       1  UNL1        0.1825
     17 H         139.6760  140.1796  172.3688 H       1  UNL1        0.2414
     18 C         138.3260  142.0404  160.1259 C.3     1  UNL1        0.0727
     19 C         139.4464  142.9552  159.7289 C.3     1  UNL1        0.0173
     20 C         140.2868  143.6131  160.7829 C.3     1  UNL1        0.0014
     21 C         139.8213  144.8850  161.4275 C.3     1  UNL1        0.0000
     22 C         140.6617  145.5428  162.4815 C.3     1  UNL1        0.0000
     23 C         141.9676  144.9288  162.8909 C.3     1  UNL1        0.0000
     24 C         142.4331  143.6569  162.2462 C.3     1  UNL1        0.0000
     25 C         141.5927  142.9990  161.1922 C.3     1  UNL1        0.0000
@<TRIPOS>BOND
     1    12    13    2
     2    13    10    1
     3    10    11    2
     4    11     1    1
     5     1     2   ar
     6     2     3   ar
     7     3     4   ar
     8     4     5   ar
     9     5     6   ar
    10     5     7    1
    11     7     8    1
    12     8    18    1
    13    18    19    1
    14    19    20    1
    15    20    21    1
    16    21    22    1
    17    22    23    1
    18    23    24    1
    19    24    25    1
    20     8     9    1
    21    13    14   am
    22    14    15    1
    23     6     1   ar
    24    25    20    1
    25     9     4    1
    26    14    16    1
    27    15    17    1
@<TRIPOS>MOLECULE
*****
 25 27 0 0 0
SMALL
GASTEIGER

@<TRIPOS>ATOM
      1 C         139.7142  139.4301  166.4976 C.ar    1  UNL1       -0.0001
      2 C         138.6106  139.0809  165.5437 C.ar    1  UNL1       -0.0003
      3 C         138.9376  138.6331  164.1499 C.ar    1  UNL1       -0.0032
      4 C         140.3682  138.5345  163.7100 C.ar    1  UNL1       -0.0088
      5 C         141.4718  138.8837  164.6639 C.ar    1  UNL1       -0.0088
      6 C         141.1449  139.3315  166.0577 C.ar    1  UNL1       -0.0032
      7 C         142.7781  138.6916  163.9519 C.3     1  UNL1        0.0991
      8 N         142.4816  138.2237  162.5579 N.3     1  UNL1       -0.2652
      9 C         140.9922  138.1266  162.4085 C.3     1  UNL1        0.0991
     10 C         140.4727  139.9748  168.9220 C.2     1  UNL1        0.0598
     11 C         139.3873  139.8779  167.8913 C.2     1  UNL1        0.0047
     12 O         139.2852  139.5659  171.1963 O.2     1  UNL1       -0.2681
     13 C         140.1458  140.4226  170.3158 C.2     1  UNL1        0.2679
     14 N         140.6794  141.7272  170.8290 N.am    1  UNL1       -0.1934
     15 O         140.3524  142.1750  172.2227 O.3     1  UNL1       -0.2949
     16 H         141.2442  142.2895  170.2510 H       1  UNL1        0.1825
     17 H         139.7912  141.5107  172.6525 H       1  UNL1        0.2414
     18 C         143.4964  137.9082  161.4992 C.3     1  UNL1        0.0727
     19 C         144.0585  139.0078  160.6477 C.3     1  UNL1        0.0173
     20 C         143.8630  140.4403  161.0473 C.3     1  UNL1        0.0014
     21 C         144.7661  141.0637  162.0698 C.3     1  UNL1        0.0000
     22 C         144.5706  142.4962  162.4694 C.3     1  UNL1        0.0000
     23 C         143.4718  143.3054  161.8463 C.3     1  UNL1        0.0000
     24 C         142.5687  142.6819  160.8237 C.3     1  UNL1        0.0000
     25 C         142.7643  141.2493  160.4242 C.3     1  UNL1        0.0000
@<TRIPOS>BOND
     1    12    13    2
     2    13    10    1
     3    10    11    2
     4    11     1    1
     5     1     2   ar
     6     2     3   ar
     7     3     4   ar
     8     4     5   ar
     9     5     6   ar
    10     5     7    1
    11     7     8    1
    12     8    18    1
    13    18    19    1
    14    19    20    1
    15    20    21    1
    16    21    22    1
    17    22    23    1
    18    23    24    1
    19    24    25    1
    20     8     9    1
    21    13    14   am
    22    14    15    1
    23     6     1   ar
    24    25    20    1
    25     9     4    1
    26    14    16    1
    27    15    17    1
@<TRIPOS>MOLECULE
*****
 25 27 0 0 0
SMALL
GASTEIGER

@<TRIPOS>ATOM
      1 C         140.1888  145.0301  162.4171 C.ar    1  UNL1       -0.0001
      2 C         138.9166  145.1315  163.2053 C.ar    1  UNL1       -0.0003
      3 C         138.8234  144.5013  164.5633 C.ar    1  UNL1       -0.0032
      4 C         140.0023  143.7697  165.1331 C.ar    1  UNL1       -0.0088
      5 C         141.2745  143.6683  164.3449 C.ar    1  UNL1       -0.0088
      6 C         141.3677  144.2985  162.9870 C.ar    1  UNL1       -0.0032
      7 C         142.2639  142.8892  165.1599 C.3     1  UNL1        0.0991
      8 N         141.6031  142.5091  166.4518 N.3     1  UNL1       -0.2652
      9 C         140.2054  143.0532  166.4352 C.3     1  UNL1        0.0991
     10 C         141.1615  145.0506  160.0081 C.2     1  UNL1        0.0598
     11 C         140.2820  145.6604  161.0591 C.2     1  UNL1        0.0047
     12 O         142.5849  145.7969  157.9669 O.2     1  UNL1       -0.2681
     13 C         141.2547  145.6808  158.6501 C.2     1  UNL1        0.2679
     14 N         140.0175  146.1951  157.9754 N.am    1  UNL1       -0.1934
     15 O         140.1108  146.8253  156.6174 O.3     1  UNL1       -0.2949
     16 H         139.1444  146.1189  158.4239 H       1  UNL1        0.1825
     17 H         141.0346  146.8210  156.3217 H       1  UNL1        0.2414
     18 C         142.2300  141.7228  167.5649 C.3     1  UNL1        0.0727
     19 C         141.7802  140.3178  167.8365 C.3     1  UNL1        0.0173
     20 C         140.7334  139.6845  166.9686 C.3     1  UNL1        0.0014
     21 C         139.2963  139.6947  167.3982 C.3     1  UNL1        0.0000
     22 C         138.2496  139.0614  166.5303 C.3     1  UNL1        0.0000
     23 C         138.6400  138.4177  165.2328 C.3     1  UNL1        0.0000
     24 C         140.0772  138.4074  164.8033 C.3     1  UNL1        0.0000
     25 C         141.1239  139.0408  165.6712 C.3     1  UNL1        0.0000
@<TRIPOS>BOND
     1    12    13    2
     2    13    10    1
     3    10    11    2
     4    11     1    1
     5     1     2   ar
     6     2     3   ar
     7     3     4   ar
     8     4     5   ar
     9     5     6   ar
    10     5     7    1
    11     7     8    1
    12     8    18    1
    13    18    19    1
    14    19    20    1
    15    20    21    1
    16    21    22    1
    17    22    23    1
    18    23    24    1
    19    24    25    1
    20     8     9    1
    21    13    14   am
    22    14    15    1
    23     6     1   ar
    24    25    20    1
    25     9     4    1
    26    14    16    1
    27    15    17    1
@<TRIPOS>MOLECULE
*****
 25 27 0 0 0
SMALL
GASTEIGER

@<TRIPOS>ATOM
      1 C         140.3860  139.9542  167.6850 C.ar    1  UNL1       -0.0001
      2 C         138.9496  139.5282  167.7556 C.ar    1  UNL1       -0.0003
      3 C         138.2720  138.9704  166.5391 C.ar    1  UNL1       -0.0032
      4 C         139.0309  138.8386  165.2520 C.ar    1  UNL1       -0.0088
      5 C         140.4674  139.2647  165.1814 C.ar    1  UNL1       -0.0088
      6 C         141.1449  139.8225  166.3979 C.ar    1  UNL1       -0.0032
      7 C         140.9561  139.0178  163.7849 C.3     1  UNL1        0.0991
      8 N         139.8216  138.4391  162.9924 N.3     1  UNL1       -0.2652
      9 C         138.6318  138.3283  163.8992 C.3     1  UNL1        0.0991
     10 C         140.8797  141.9552  169.2669 C.2     1  UNL1        0.0598
     11 C         141.0635  140.5121  168.9015 C.2     1  UNL1        0.0047
     12 O         141.0762  142.1302  171.8516 O.2     1  UNL1       -0.2681
     13 C         141.5572  142.5130  170.4834 C.2     1  UNL1        0.2679
     14 N         142.7158  143.4536  170.3316 N.am    1  UNL1       -0.1934
     15 O         143.3933  144.0114  171.5481 O.3     1  UNL1       -0.2949
     16 H         143.0315  143.7048  169.4336 H       1  UNL1        0.1825
     17 H         142.9622  143.6658  172.3453 H       1  UNL1        0.2414
     18 C         139.8686  138.0409  161.5469 C.3     1  UNL1        0.0727
     19 C         139.3409  138.9713  160.4952 C.3     1  UNL1        0.0173
     20 C         139.3399  140.4518  160.7358 C.3     1  UNL1        0.0014
     21 C         140.5752  141.2572  160.4613 C.3     1  UNL1        0.0000
     22 C         140.5742  142.7377  160.7019 C.3     1  UNL1        0.0000
     23 C         139.3378  143.4130  161.2169 C.3     1  UNL1        0.0000
     24 C         138.1024  142.6077  161.4914 C.3     1  UNL1        0.0000
     25 C         138.1035  141.1271  161.2508 C.3     1  UNL1        0.0000
@<TRIPOS>BOND
     1    12    13    2
     2    13    10    1
     3    10    11    2
     4    11     1    1
     5     1     2   ar
     6     2     3   ar
     7     3     4   ar
     8     4     5   ar
     9     5     6   ar
    10     5     7    1
    11     7     8    1
    12     8    18    1
    13    18    19    1
    14    19    20    1
    15    20    21    1
    16    21    22    1
    17    22    23    1
    18    23    24    1
    19    24    25    1
    20     8     9    1
    21    13    14   am
    22    14    15    1
    23     6     1   ar
    24    25    20    1
    25     9     4    1
    26    14    16    1
    27    15    17    1
@<TRIPOS>MOLECULE
*****
 25 27 0 0 0
SMALL
GASTEIGER

@<TRIPOS>ATOM
      1 C         140.9471  142.1465  166.7640 C.ar    1  UNL1       -0.0001
      2 C         142.3979  142.2009  166.3870 C.ar    1  UNL1       -0.0003
      3 C         142.8241  142.9309  165.1479 C.ar    1  UNL1       -0.0032
      4 C         141.7994  143.6067  164.2858 C.ar    1  UNL1       -0.0088
      5 C         140.3486  143.5523  164.6627 C.ar    1  UNL1       -0.0088
      6 C         139.9224  142.8223  165.9018 C.ar    1  UNL1       -0.0032
      7 C         139.5715  144.3075  163.6254 C.3     1  UNL1        0.0991
      8 N         140.5421  144.8285  162.6073 N.3     1  UNL1       -0.2652
      9 C         141.9190  144.3954  163.0155 C.3     1  UNL1        0.0991
     10 C         140.9057  141.9434  169.3538 C.2     1  UNL1        0.0598
     11 C         140.5210  141.4165  168.0031 C.2     1  UNL1        0.0047
     12 O         140.5084  141.9098  171.9210 O.2     1  UNL1       -0.2681
     13 C         140.4795  141.2133  170.5929 C.2     1  UNL1        0.2679
     14 N         140.0245  139.7867  170.5038 N.am    1  UNL1       -0.1934
     15 O         139.5984  139.0567  171.7429 O.3     1  UNL1       -0.2949
     16 H         140.0056  139.3296  169.6321 H       1  UNL1        0.1825
     17 H         139.6769  139.6466  172.5089 H       1  UNL1        0.2414
     18 C         140.1966  145.6402  161.3941 C.3     1  UNL1        0.0727
     19 C         141.0041  145.4933  160.1386 C.3     1  UNL1        0.0173
     20 C         140.3493  145.0121  158.8777 C.3     1  UNL1        0.0014
     21 C         139.7327  143.6456  158.8272 C.3     1  UNL1        0.0000
     22 C         139.0780  143.1644  157.5664 C.3     1  UNL1        0.0000
     23 C         139.0399  144.0497  156.3560 C.3     1  UNL1        0.0000
     24 C         139.6565  145.4161  156.4065 C.3     1  UNL1        0.0000
     25 C         140.3113  145.8973  157.6675 C.3     1  UNL1        0.0000
@<TRIPOS>BOND
     1    12    13    2
     2    13    10    1
     3    10    11    2
     4    11     1    1
     5     1     2   ar
     6     2     3   ar
     7     3     4   ar
     8     4     5   ar
     9     5     6   ar
    10     5     7    1
    11     7     8    1
    12     8    18    1
    13    18    19    1
    14    19    20    1
    15    20    21    1
    16    21    22    1
    17    22    23    1
    18    23    24    1
    19    24    25    1
    20     8     9    1
    21    13    14   am
    22    14    15    1
    23     6     1   ar
    24    25    20    1
    25     9     4    1
    26    14    16    1
    27    15    17    1
