@<TRIPOS>MOLECULE
*****
 34 39 0 0 0
SMALL
GASTEIGER

@<TRIPOS>ATOM
      1 C         142.5476  136.7070  157.6294 C.3     1  UNL1        0.1161
      2 C         143.2762  135.4096  157.4395 C.3     1  UNL1        0.0510
      3 C         142.9091  134.5028  156.3023 C.2     1  UNL1       -0.0044
      4 C         141.8136  134.8935  155.3552 C.2     1  UNL1        0.0689
      5 N         141.6735  133.8039  154.3338 N.2     1  UNL1       -0.2526
      6 C         142.6826  132.7399  154.6497 C.2     1  UNL1        0.0627
      7 C         143.0047  131.4335  153.9867 C.3     1  UNL1        0.0717
      8 C         144.0904  130.5591  154.5404 C.2     1  UNL1       -0.0198
      9 C         144.8541  130.9911  155.7570 C.2     1  UNL1       -0.0042
     10 C         144.5320  132.2975  156.4200 C.2     1  UNL1        0.0006
     11 C         143.4462  133.1719  155.8663 C.2     1  UNL1        0.0111
     12 C         141.0850  136.1908  155.5451 C.3     1  UNL1        0.0949
     13 N         141.4520  137.0976  156.6823 N.3     1  UNL1       -0.2887
     14 H         140.6091  137.2230  157.2427 H       1  UNL1        0.1239
     15 C         143.2434  138.4915  161.0053 C.ar    1  UNL1        0.0769
     16 C         143.7155  139.5265  160.0277 C.ar    1  UNL1        0.1171
     17 N         143.5124  138.9840  158.6441 N.ar    1  UNL1       -0.2282
     18 C         142.9147  137.6137  158.7666 C.ar    1  UNL1        0.1318
     19 N         142.7484  137.3093  160.2259 N.ar    1  UNL1       -0.3397
     20 H         142.3792  136.4793  160.6055 H       1  UNL1        0.1671
     21 F         143.3210  138.9922  166.9840 F       1  UNL1       -0.2018
     22 C         143.3016  138.8670  165.4893 C.ar    1  UNL1        0.1674
     23 C         144.4971  139.2859  164.6860 C.ar    1  UNL1        0.0320
     24 C         144.4776  139.1608  163.1914 C.ar    1  UNL1        0.0039
     25 C         143.2627  138.6166  162.5000 C.ar    1  UNL1        0.0195
     26 C         142.0673  138.1977  163.3033 C.ar    1  UNL1        0.0334
     27 C         142.0867  138.3229  164.7979 C.ar    1  UNL1        0.1674
     28 F         140.8912  137.9039  165.6013 F       1  UNL1       -0.2018
     29 C         139.9894  136.5814  154.5980 C.3     1  UNL1        0.0252
     30 C         138.7180  137.1766  155.1263 C.3     1  UNL1        0.0339
     31 C         137.6224  137.5672  154.1791 C.3     1  UNL1        0.1422
     32 O         137.7983  137.3626  152.7036 O.3     1  UNL1       -0.3538
     33 C         139.0698  136.7674  152.1752 C.3     1  UNL1        0.1422
     34 C         140.1652  136.3768  153.1224 C.3     1  UNL1        0.0339
@<TRIPOS>BOND
     1    21    22    1
     2    22    23   ar
     3    23    24   ar
     4    24    25   ar
     5    25    15    1
     6    15    16   ar
     7    16    17   ar
     8    17    18   ar
     9     1    18    1
    10     1     2    1
    11     2     3    1
    12     3     4    2
    13     4     5    1
    14     5     6    2
    15     6     7    1
    16     7     8    1
    17     8     9    2
    18     9    10    1
    19    10    11    2
    20     4    12    1
    21    12    29    1
    22    29    30    1
    23    30    31    1
    24    31    32    1
    25    32    33    1
    26    33    34    1
    27    12    13    1
    28    18    19   ar
    29    25    26   ar
    30    26    27   ar
    31    27    28    1
    32    27    22   ar
    33    19    15   ar
    34    13     1    1
    35    11     3    1
    36    34    29    1
    37    11     6    1
    38    13    14    1
    39    19    20    1
@<TRIPOS>MOLECULE
*****
 34 39 0 0 0
SMALL
GASTEIGER

@<TRIPOS>ATOM
      1 C         139.3811  139.7664  157.6076 C.3     1  UNL1        0.1161
      2 C         139.0459  139.6595  159.0657 C.3     1  UNL1        0.0510
      3 C         138.7346  140.8956  159.8564 C.2     1  UNL1       -0.0044
      4 C         138.7584  142.2386  159.1888 C.2     1  UNL1        0.0689
      5 N         138.4108  143.2736  160.2174 N.2     1  UNL1       -0.2526
      6 C         138.1721  142.5702  161.5206 C.2     1  UNL1        0.0627
      7 C         137.7984  143.0782  162.8815 C.3     1  UNL1        0.0717
      8 C         137.6247  142.1164  164.0194 C.2     1  UNL1       -0.0198
      9 C         137.8248  140.6466  163.7962 C.2     1  UNL1       -0.0042
     10 C         138.1985  140.1387  162.4353 C.2     1  UNL1        0.0006
     11 C         138.3722  141.1005  161.2974 C.2     1  UNL1        0.0111
     12 C         139.0937  142.3456  157.7307 C.3     1  UNL1        0.0949
     13 N         139.4050  141.1095  156.9400 N.3     1  UNL1       -0.2887
     14 H         140.3431  141.2322  156.5589 H       1  UNL1        0.1239
     15 C         140.7823  136.5133  156.0203 C.ar    1  UNL1        0.0769
     16 C         139.5608  136.7428  155.1804 C.ar    1  UNL1        0.1171
     17 N         138.8872  137.9893  155.6728 N.ar    1  UNL1       -0.2282
     18 C         139.6924  138.5302  156.8169 C.ar    1  UNL1        0.1318
     19 N         140.8636  137.6181  157.0317 N.ar    1  UNL1       -0.3397
     20 H         141.5630  137.7256  157.7163 H       1  UNL1        0.1671
     21 F         144.6618  131.9736  155.4364 F       1  UNL1       -0.2018
     22 C         143.6919  133.1086  155.5824 C.ar    1  UNL1        0.1674
     23 C         142.7034  133.3954  154.4913 C.ar    1  UNL1        0.0320
     24 C         141.7335  134.5303  154.6372 C.ar    1  UNL1        0.0039
     25 C         141.7522  135.3784  155.8743 C.ar    1  UNL1        0.0195
     26 C         142.7407  135.0916  156.9654 C.ar    1  UNL1        0.0334
     27 C         143.7106  133.9567  156.8194 C.ar    1  UNL1        0.1674
     28 F         144.6992  133.6699  157.9106 F       1  UNL1       -0.2018
     29 C         139.1175  143.6886  157.0631 C.3     1  UNL1        0.0252
     30 C         140.0528  144.7536  157.5540 C.3     1  UNL1        0.0339
     31 C         140.0766  146.0967  156.8864 C.3     1  UNL1        0.1422
     32 O         139.1652  146.3747  155.7280 O.3     1  UNL1       -0.3538
     33 C         138.2299  145.3097  155.2371 C.3     1  UNL1        0.1422
     34 C         138.2061  143.9667  155.9046 C.3     1  UNL1        0.0339
@<TRIPOS>BOND
     1    21    22    1
     2    22    23   ar
     3    23    24   ar
     4    24    25   ar
     5    25    15    1
     6    15    16   ar
     7    16    17   ar
     8    17    18   ar
     9     1    18    1
    10     1     2    1
    11     2     3    1
    12     3     4    2
    13     4     5    1
    14     5     6    2
    15     6     7    1
    16     7     8    1
    17     8     9    2
    18     9    10    1
    19    10    11    2
    20     4    12    1
    21    12    29    1
    22    29    30    1
    23    30    31    1
    24    31    32    1
    25    32    33    1
    26    33    34    1
    27    12    13    1
    28    18    19   ar
    29    25    26   ar
    30    26    27   ar
    31    27    28    1
    32    27    22   ar
    33    19    15   ar
    34    13     1    1
    35    11     3    1
    36    34    29    1
    37    11     6    1
    38    13    14    1
    39    19    20    1
@<TRIPOS>MOLECULE
*****
 34 39 0 0 0
SMALL
GASTEIGER

@<TRIPOS>ATOM
      1 C         142.1315  140.0737  160.5636 C.3     1  UNL1        0.1161
      2 C         142.5931  139.4136  161.8290 C.3     1  UNL1        0.0510
      3 C         142.2600  140.0241  163.1580 C.2     1  UNL1       -0.0044
      4 C         141.4653  141.2947  163.2216 C.2     1  UNL1        0.0689
      5 N         141.2903  141.6601  164.6658 N.2     1  UNL1       -0.2526
      6 C         141.9768  140.6154  165.4948 C.2     1  UNL1        0.0627
      7 C         142.1336  140.4542  166.9778 C.3     1  UNL1        0.0717
      8 C         142.8897  139.2818  167.5290 C.2     1  UNL1       -0.0198
      9 C         143.4890  138.2707  166.5971 C.2     1  UNL1       -0.0042
     10 C         143.3322  138.4319  165.1141 C.2     1  UNL1        0.0006
     11 C         142.5761  139.6043  164.5629 C.2     1  UNL1        0.0111
     12 C         141.0037  141.9548  161.9562 C.3     1  UNL1        0.0949
     13 N         141.3368  141.3442  160.6272 N.3     1  UNL1       -0.2887
     14 H         141.8608  142.0457  160.1039 H       1  UNL1        0.1239
     15 C         142.8194  137.8430  157.4625 C.ar    1  UNL1        0.0769
     16 C         143.1352  139.2039  156.9165 C.ar    1  UNL1        0.1171
     17 N         142.9160  140.2051  158.0116 N.ar    1  UNL1       -0.2282
     18 C         142.4647  139.4631  159.2345 C.ar    1  UNL1        0.1318
     19 N         142.4049  138.0032  158.8952 N.ar    1  UNL1       -0.3397
     20 H         142.1402  137.2776  159.5057 H       1  UNL1        0.1671
     21 F         143.1548  132.6674  154.4458 F       1  UNL1       -0.2018
     22 C         143.0709  133.9613  155.2000 C.ar    1  UNL1        0.1674
     23 C         142.9048  135.2534  154.4564 C.ar    1  UNL1        0.0320
     24 C         142.8210  136.5473  155.2106 C.ar    1  UNL1        0.0039
     25 C         142.9032  136.5490  156.7083 C.ar    1  UNL1        0.0195
     26 C         143.0693  135.2570  157.4519 C.ar    1  UNL1        0.0334
     27 C         143.1532  133.9631  156.6977 C.ar    1  UNL1        0.1674
     28 F         143.3193  132.6710  157.4413 F       1  UNL1       -0.2018
     29 C         140.2090  143.2254  162.0197 C.3     1  UNL1        0.0252
     30 C         140.7649  144.4879  161.4308 C.3     1  UNL1        0.0339
     31 C         139.9702  145.7585  161.4944 C.3     1  UNL1        0.1422
     32 O         138.6196  145.7665  162.1469 O.3     1  UNL1       -0.3538
     33 C         138.0636  144.5039  162.7358 C.3     1  UNL1        0.1422
     34 C         138.8584  143.2334  162.6722 C.3     1  UNL1        0.0339
@<TRIPOS>BOND
     1    21    22    1
     2    22    23   ar
     3    23    24   ar
     4    24    25   ar
     5    25    15    1
     6    15    16   ar
     7    16    17   ar
     8    17    18   ar
     9     1    18    1
    10     1     2    1
    11     2     3    1
    12     3     4    2
    13     4     5    1
    14     5     6    2
    15     6     7    1
    16     7     8    1
    17     8     9    2
    18     9    10    1
    19    10    11    2
    20     4    12    1
    21    12    29    1
    22    29    30    1
    23    30    31    1
    24    31    32    1
    25    32    33    1
    26    33    34    1
    27    12    13    1
    28    18    19   ar
    29    25    26   ar
    30    26    27   ar
    31    27    28    1
    32    27    22   ar
    33    19    15   ar
    34    13     1    1
    35    11     3    1
    36    34    29    1
    37    11     6    1
    38    13    14    1
    39    19    20    1
@<TRIPOS>MOLECULE
*****
 34 39 0 0 0
SMALL
GASTEIGER

@<TRIPOS>ATOM
      1 C         143.1421  139.3089  158.0365 C.3     1  UNL1        0.1161
      2 C         142.3487  140.4800  157.5374 C.3     1  UNL1        0.0510
      3 C         142.1821  141.6955  158.4003 C.2     1  UNL1       -0.0044
      4 C         142.8089  141.7400  159.7623 C.2     1  UNL1        0.0689
      5 N         142.4755  143.0642  160.3830 N.2     1  UNL1       -0.2526
      6 C         141.6427  143.8382  159.4045 C.2     1  UNL1        0.0627
      7 C         141.0260  145.2039  159.4711 C.3     1  UNL1        0.0717
      8 C         140.2280  145.7237  158.3123 C.2     1  UNL1       -0.0198
      9 C         140.0467  144.8778  157.0869 C.2     1  UNL1       -0.0042
     10 C         140.6633  143.5121  157.0203 C.2     1  UNL1        0.0006
     11 C         141.4613  142.9923  158.1792 C.2     1  UNL1        0.0111
     12 C         143.6023  140.5688  160.2614 C.3     1  UNL1        0.0949
     13 N         143.7689  139.3533  159.3985 N.3     1  UNL1       -0.2887
     14 H         143.3891  138.5654  159.9233 H       1  UNL1        0.1239
     15 C         143.1489  135.8246  156.3262 C.ar    1  UNL1        0.0769
     16 C         143.9807  136.6209  155.3650 C.ar    1  UNL1        0.1171
     17 N         144.0794  138.0230  155.8886 N.ar    1  UNL1       -0.2282
     18 C         143.3086  138.0932  157.1735 C.ar    1  UNL1        0.1318
     19 N         142.7335  136.7346  157.4439 N.ar    1  UNL1       -0.3397
     20 H         142.1805  136.4841  158.2190 H       1  UNL1        0.1671
     21 F         141.7319  130.0186  155.7936 F       1  UNL1       -0.2018
     22 C         142.0861  131.4701  155.9268 C.ar    1  UNL1        0.1674
     23 C         141.3722  132.4956  155.0968 C.ar    1  UNL1        0.0320
     24 C         141.7265  133.9470  155.2300 C.ar    1  UNL1        0.0039
     25 C         142.7947  134.3730  156.1931 C.ar    1  UNL1        0.0195
     26 C         143.5086  133.3476  157.0230 C.ar    1  UNL1        0.0334
     27 C         143.1543  131.8962  156.8898 C.ar    1  UNL1        0.1674
     28 F         143.8682  130.8707  157.7198 F       1  UNL1       -0.2018
     29 C         144.2291  140.6133  161.6234 C.3     1  UNL1        0.0252
     30 C         144.0399  139.4684  162.5738 C.3     1  UNL1        0.0339
     31 C         144.6668  139.5129  163.9359 C.3     1  UNL1        0.1422
     32 O         145.4828  140.7023  164.3475 O.3     1  UNL1       -0.3538
     33 C         145.6720  141.8472  163.3971 C.3     1  UNL1        0.1422
     34 C         145.0452  141.8027  162.0351 C.3     1  UNL1        0.0339
@<TRIPOS>BOND
     1    21    22    1
     2    22    23   ar
     3    23    24   ar
     4    24    25   ar
     5    25    15    1
     6    15    16   ar
     7    16    17   ar
     8    17    18   ar
     9     1    18    1
    10     1     2    1
    11     2     3    1
    12     3     4    2
    13     4     5    1
    14     5     6    2
    15     6     7    1
    16     7     8    1
    17     8     9    2
    18     9    10    1
    19    10    11    2
    20     4    12    1
    21    12    29    1
    22    29    30    1
    23    30    31    1
    24    31    32    1
    25    32    33    1
    26    33    34    1
    27    12    13    1
    28    18    19   ar
    29    25    26   ar
    30    26    27   ar
    31    27    28    1
    32    27    22   ar
    33    19    15   ar
    34    13     1    1
    35    11     3    1
    36    34    29    1
    37    11     6    1
    38    13    14    1
    39    19    20    1
@<TRIPOS>MOLECULE
*****
 34 39 0 0 0
SMALL
GASTEIGER

@<TRIPOS>ATOM
      1 C         142.9290  139.8599  158.0313 C.3     1  UNL1        0.1161
      2 C         143.5419  139.8067  159.3993 C.3     1  UNL1        0.0510
      3 C         143.6196  141.0498  160.2352 C.2     1  UNL1       -0.0044
      4 C         143.0842  142.3461  159.7030 C.2     1  UNL1        0.0689
      5 N         143.2980  143.4000  160.7486 N.2     1  UNL1       -0.2526
      6 C         143.9655  142.7552  161.9271 C.2     1  UNL1        0.0627
      7 C         144.4179  143.3030  163.2481 C.3     1  UNL1        0.0717
      8 C         145.0692  142.3983  164.2518 C.2     1  UNL1       -0.0198
      9 C         145.2679  140.9458  163.9344 C.2     1  UNL1       -0.0042
     10 C         144.8154  140.3980  162.6134 C.2     1  UNL1        0.0006
     11 C         144.1642  141.3027  161.6097 C.2     1  UNL1        0.0111
     12 C         142.4712  142.3992  158.3349 C.3     1  UNL1        0.0949
     13 N         142.3936  141.1561  157.4991 N.3     1  UNL1       -0.2887
     14 H         142.8988  141.3505  156.6346 H       1  UNL1        0.1239
     15 C         142.8290  136.2846  156.5237 C.ar    1  UNL1        0.0769
     16 C         142.6349  137.1228  155.2950 C.ar    1  UNL1        0.1171
     17 N         142.6488  138.5641  155.7101 N.ar    1  UNL1       -0.2282
     18 C         142.8514  138.6167  157.1954 C.ar    1  UNL1        0.1318
     19 N         142.9627  137.2079  157.6983 N.ar    1  UNL1       -0.3397
     20 H         143.0996  136.9368  158.6348 H       1  UNL1        0.1671
     21 F         143.0339  130.2909  156.7080 F       1  UNL1       -0.2018
     22 C         142.9827  131.7893  156.6619 C.ar    1  UNL1        0.1674
     23 C         141.9646  132.4789  155.8029 C.ar    1  UNL1        0.0320
     24 C         141.9133  133.9772  155.7568 C.ar    1  UNL1        0.0039
     25 C         142.8802  134.7861  156.5698 C.ar    1  UNL1        0.0195
     26 C         143.8983  134.0966  157.4288 C.ar    1  UNL1        0.0334
     27 C         143.9495  132.5982  157.4749 C.ar    1  UNL1        0.1674
     28 F         144.9677  131.9086  158.3339 F       1  UNL1       -0.2018
     29 C         141.9359  143.6954  157.8027 C.3     1  UNL1        0.0252
     30 C         140.8816  144.4411  158.5657 C.3     1  UNL1        0.0339
     31 C         140.3462  145.7373  158.0334 C.3     1  UNL1        0.1422
     32 O         140.8653  146.2878  156.7382 O.3     1  UNL1       -0.3538
     33 C         141.9197  145.5420  155.9752 C.3     1  UNL1        0.1422
     34 C         142.4549  144.2459  156.5075 C.3     1  UNL1        0.0339
@<TRIPOS>BOND
     1    21    22    1
     2    22    23   ar
     3    23    24   ar
     4    24    25   ar
     5    25    15    1
     6    15    16   ar
     7    16    17   ar
     8    17    18   ar
     9     1    18    1
    10     1     2    1
    11     2     3    1
    12     3     4    2
    13     4     5    1
    14     5     6    2
    15     6     7    1
    16     7     8    1
    17     8     9    2
    18     9    10    1
    19    10    11    2
    20     4    12    1
    21    12    29    1
    22    29    30    1
    23    30    31    1
    24    31    32    1
    25    32    33    1
    26    33    34    1
    27    12    13    1
    28    18    19   ar
    29    25    26   ar
    30    26    27   ar
    31    27    28    1
    32    27    22   ar
    33    19    15   ar
    34    13     1    1
    35    11     3    1
    36    34    29    1
    37    11     6    1
    38    13    14    1
    39    19    20    1
@<TRIPOS>MOLECULE
*****
 34 39 0 0 0
SMALL
GASTEIGER

@<TRIPOS>ATOM
      1 C         140.6832  144.1365  160.4122 C.3     1  UNL1        0.1161
      2 C         140.1172  145.1931  159.5104 C.3     1  UNL1        0.0510
      3 C         140.5432  145.2599  158.0737 C.2     1  UNL1       -0.0044
      4 C         141.5352  144.2700  157.5389 C.2     1  UNL1        0.0689
      5 N         141.7649  144.5810  156.0895 N.2     1  UNL1       -0.2526
      6 C         140.9149  145.7631  155.7287 C.2     1  UNL1        0.0627
      7 C         140.7309  146.5116  154.4419 C.3     1  UNL1        0.0717
      8 C         139.7918  147.6797  154.3815 C.2     1  UNL1       -0.0198
      9 C         139.0367  148.0992  155.6078 C.2     1  UNL1       -0.0042
     10 C         139.2208  147.3507  156.8946 C.2     1  UNL1        0.0006
     11 C         140.1598  146.1827  156.9550 C.2     1  UNL1        0.0111
     12 C         142.1012  143.2134  158.4406 C.3     1  UNL1        0.0949
     13 N         141.6752  143.1466  159.8773 N.3     1  UNL1       -0.2887
     14 H         142.5205  143.2435  160.4399 H       1  UNL1        0.1239
     15 C         139.8894  143.2764  164.1129 C.ar    1  UNL1        0.0769
     16 C         139.3137  144.6574  164.0064 C.ar    1  UNL1        0.1171
     17 N         139.5410  145.1477  162.6072 N.ar    1  UNL1       -0.2282
     18 C         140.2571  144.0697  161.8489 C.ar    1  UNL1        0.1318
     19 N         140.4724  142.9132  162.7795 N.ar    1  UNL1       -0.3397
     20 H         140.9182  142.0647  162.5545 H       1  UNL1        0.1671
     21 F         139.8643  139.8132  169.0125 F       1  UNL1       -0.2018
     22 C         139.8706  140.6791  167.7876 C.ar    1  UNL1        0.1674
     23 C         140.6184  141.9793  167.7921 C.ar    1  UNL1        0.0320
     24 C         140.6247  142.8450  166.5672 C.ar    1  UNL1        0.0039
     25 C         139.8831  142.4106  165.3379 C.ar    1  UNL1        0.0195
     26 C         139.1352  141.1104  165.3334 C.ar    1  UNL1        0.0334
     27 C         139.1289  140.2446  166.5583 C.ar    1  UNL1        0.1674
     28 F         138.3810  138.9443  166.5539 F       1  UNL1       -0.2018
     29 C         143.0932  142.2235  157.9058 C.3     1  UNL1        0.0252
     30 C         144.5248  142.6267  157.7115 C.3     1  UNL1        0.0339
     31 C         145.5168  141.6367  157.1766 C.3     1  UNL1        0.1422
     32 O         145.0771  140.2436  156.8360 O.3     1  UNL1       -0.3538
     33 C         143.6454  139.8405  157.0303 C.3     1  UNL1        0.1422
     34 C         142.6535  140.8303  157.5652 C.3     1  UNL1        0.0339
@<TRIPOS>BOND
     1    21    22    1
     2    22    23   ar
     3    23    24   ar
     4    24    25   ar
     5    25    15    1
     6    15    16   ar
     7    16    17   ar
     8    17    18   ar
     9     1    18    1
    10     1     2    1
    11     2     3    1
    12     3     4    2
    13     4     5    1
    14     5     6    2
    15     6     7    1
    16     7     8    1
    17     8     9    2
    18     9    10    1
    19    10    11    2
    20     4    12    1
    21    12    29    1
    22    29    30    1
    23    30    31    1
    24    31    32    1
    25    32    33    1
    26    33    34    1
    27    12    13    1
    28    18    19   ar
    29    25    26   ar
    30    26    27   ar
    31    27    28    1
    32    27    22   ar
    33    19    15   ar
    34    13     1    1
    35    11     3    1
    36    34    29    1
    37    11     6    1
    38    13    14    1
    39    19    20    1
@<TRIPOS>MOLECULE
*****
 34 39 0 0 0
SMALL
GASTEIGER

@<TRIPOS>ATOM
      1 C         141.9291  139.5480  161.1643 C.3     1  UNL1        0.1161
      2 C         140.9580  138.7984  162.0275 C.3     1  UNL1        0.0510
      3 C         140.6253  139.3076  163.3987 C.2     1  UNL1       -0.0044
      4 C         141.2637  140.5664  163.9065 C.2     1  UNL1        0.0689
      5 N         140.7450  140.8234  165.2903 N.2     1  UNL1       -0.2526
      6 C         139.7861  139.7235  165.6377 C.2     1  UNL1        0.0627
      7 C         138.9707  139.4539  166.8675 C.3     1  UNL1        0.0717
      8 C         138.0814  138.2476  166.9282 C.2     1  UNL1       -0.0198
      9 C         138.0074  137.3108  165.7591 C.2     1  UNL1       -0.0042
     10 C         138.8227  137.5803  164.5292 C.2     1  UNL1        0.0006
     11 C         139.7121  138.7867  164.4686 C.2     1  UNL1        0.0111
     12 C         142.2348  141.3160  163.0433 C.3     1  UNL1        0.0949
     13 N         142.5675  140.8067  161.6722 N.3     1  UNL1       -0.2887
     14 H         143.5758  140.6547  161.6512 H       1  UNL1        0.1239
     15 C         142.7217  137.5496  157.9326 C.ar    1  UNL1        0.0769
     16 C         142.8257  138.9604  157.4339 C.ar    1  UNL1        0.1171
     17 N         142.5415  139.8807  158.5837 N.ar    1  UNL1       -0.2282
     18 C         142.2618  139.0387  159.7931 C.ar    1  UNL1        0.1318
     19 N         142.3731  137.5980  159.3908 N.ar    1  UNL1       -0.3397
     20 H         142.2407  136.8207  159.9802 H       1  UNL1        0.1671
     21 F         143.5535  132.5845  154.6683 F       1  UNL1       -0.2018
     22 C         143.3455  133.8258  155.4844 C.ar    1  UNL1        0.1674
     23 C         142.9768  135.1138  154.8098 C.ar    1  UNL1        0.0320
     24 C         142.7688  136.3550  155.6259 C.ar    1  UNL1        0.0039
     25 C         142.9296  136.3083  157.1165 C.ar    1  UNL1        0.0195
     26 C         143.2984  135.0203  157.7911 C.ar    1  UNL1        0.0334
     27 C         143.5064  133.7791  156.9750 C.ar    1  UNL1        0.1674
     28 F         143.8752  132.4910  157.6495 F       1  UNL1       -0.2018
     29 C         142.8732  142.5747  163.5512 C.3     1  UNL1        0.0252
     30 C         142.5109  143.8973  162.9435 C.3     1  UNL1        0.0339
     31 C         143.1493  145.1561  163.4515 C.3     1  UNL1        0.1422
     32 O         144.1500  145.0922  164.5670 O.3     1  UNL1       -0.3538
     33 C         144.5123  143.7695  165.1747 C.3     1  UNL1        0.1422
     34 C         143.8739  142.5108  164.6668 C.3     1  UNL1        0.0339
@<TRIPOS>BOND
     1    21    22    1
     2    22    23   ar
     3    23    24   ar
     4    24    25   ar
     5    25    15    1
     6    15    16   ar
     7    16    17   ar
     8    17    18   ar
     9     1    18    1
    10     1     2    1
    11     2     3    1
    12     3     4    2
    13     4     5    1
    14     5     6    2
    15     6     7    1
    16     7     8    1
    17     8     9    2
    18     9    10    1
    19    10    11    2
    20     4    12    1
    21    12    29    1
    22    29    30    1
    23    30    31    1
    24    31    32    1
    25    32    33    1
    26    33    34    1
    27    12    13    1
    28    18    19   ar
    29    25    26   ar
    30    26    27   ar
    31    27    28    1
    32    27    22   ar
    33    19    15   ar
    34    13     1    1
    35    11     3    1
    36    34    29    1
    37    11     6    1
    38    13    14    1
    39    19    20    1
@<TRIPOS>MOLECULE
*****
 34 39 0 0 0
SMALL
GASTEIGER

@<TRIPOS>ATOM
      1 C         143.2052  143.0120  157.5066 C.3     1  UNL1        0.1161
      2 C         143.2142  143.2447  158.9885 C.3     1  UNL1        0.0510
      3 C         142.0248  143.8677  159.6571 C.2     1  UNL1       -0.0044
      4 C         140.8263  144.2580  158.8439 C.2     1  UNL1        0.0689
      5 N         139.8078  144.8484  159.7734 N.2     1  UNL1       -0.2526
      6 C         140.3768  144.8230  161.1611 C.2     1  UNL1        0.0627
      7 C         139.8243  145.2735  162.4808 C.3     1  UNL1        0.0717
      8 C         140.6420  145.1179  163.7286 C.2     1  UNL1       -0.0198
      9 C         142.0121  144.5117  163.6567 C.2     1  UNL1       -0.0042
     10 C         142.5647  144.0612  162.3370 C.2     1  UNL1        0.0006
     11 C         141.7470  144.2169  161.0892 C.2     1  UNL1        0.0111
     12 C         140.8173  144.0253  157.3620 C.3     1  UNL1        0.0949
     13 N         142.0067  143.4024  156.6934 N.3     1  UNL1       -0.2887
     14 H         142.3313  144.0669  155.9910 H       1  UNL1        0.1239
     15 C         146.4550  142.1086  155.5862 C.ar    1  UNL1        0.0769
     16 C         145.9953  140.7522  156.0320 C.ar    1  UNL1        0.1171
     17 N         144.7219  140.9255  156.8057 N.ar    1  UNL1       -0.2282
     18 C         144.3947  142.3890  156.8380 C.ar    1  UNL1        0.1318
     19 N         145.4658  143.1202  156.0843 N.ar    1  UNL1       -0.3397
     20 H         145.5115  144.0933  155.9416 H       1  UNL1        0.1671
     21 F         151.3851  143.2819  152.3741 F       1  UNL1       -0.2018
     22 C         150.1526  142.9886  153.1771 C.ar    1  UNL1        0.1674
     23 C         148.8833  143.7399  152.9043 C.ar    1  UNL1        0.0320
     24 C         147.6508  143.4465  153.7073 C.ar    1  UNL1        0.0039
     25 C         147.6876  142.4019  154.7831 C.ar    1  UNL1        0.0195
     26 C         148.9569  141.6506  155.0560 C.ar    1  UNL1        0.0334
     27 C         150.1893  141.9440  154.2530 C.ar    1  UNL1        0.1674
     28 F         151.4587  141.1927  154.5258 F       1  UNL1       -0.2018
     29 C         139.6188  144.4157  156.5488 C.3     1  UNL1        0.0252
     30 C         138.5283  143.4179  156.2937 C.3     1  UNL1        0.0339
     31 C         137.3298  143.8083  155.4804 C.3     1  UNL1        0.1422
     32 O         137.2220  145.1965  154.9224 O.3     1  UNL1       -0.3538
     33 C         138.3125  146.1943  155.1775 C.3     1  UNL1        0.1422
     34 C         139.5109  145.8039  155.9907 C.3     1  UNL1        0.0339
@<TRIPOS>BOND
     1    21    22    1
     2    22    23   ar
     3    23    24   ar
     4    24    25   ar
     5    25    15    1
     6    15    16   ar
     7    16    17   ar
     8    17    18   ar
     9     1    18    1
    10     1     2    1
    11     2     3    1
    12     3     4    2
    13     4     5    1
    14     5     6    2
    15     6     7    1
    16     7     8    1
    17     8     9    2
    18     9    10    1
    19    10    11    2
    20     4    12    1
    21    12    29    1
    22    29    30    1
    23    30    31    1
    24    31    32    1
    25    32    33    1
    26    33    34    1
    27    12    13    1
    28    18    19   ar
    29    25    26   ar
    30    26    27   ar
    31    27    28    1
    32    27    22   ar
    33    19    15   ar
    34    13     1    1
    35    11     3    1
    36    34    29    1
    37    11     6    1
    38    13    14    1
    39    19    20    1
@<TRIPOS>MOLECULE
*****
 34 39 0 0 0
SMALL
GASTEIGER

@<TRIPOS>ATOM
      1 C         143.4482  137.7221  155.4483 C.3     1  UNL1        0.1161
      2 C         143.9596  136.3538  155.7890 C.3     1  UNL1        0.0510
      3 C         143.0908  135.1515  155.5665 C.2     1  UNL1       -0.0044
      4 C         141.7105  135.3175  155.0033 C.2     1  UNL1        0.0689
      5 N         141.0877  133.9573  154.8941 N.2     1  UNL1       -0.2526
      6 C         142.0831  132.9506  155.3899 C.2     1  UNL1        0.0627
      7 C         142.0222  131.4572  155.5166 C.3     1  UNL1        0.0717
      8 C         143.1992  130.7019  156.0588 C.2     1  UNL1       -0.0198
      9 C         144.4371  131.4400  156.4744 C.2     1  UNL1       -0.0042
     10 C         144.4981  132.9333  156.3477 C.2     1  UNL1        0.0006
     11 C         143.3211  133.6886  155.8054 C.2     1  UNL1        0.0111
     12 C         141.1991  136.6859  154.6626 C.3     1  UNL1        0.0949
     13 N         142.0679  137.8882  154.8851 N.3     1  UNL1       -0.2887
     14 H         141.5619  138.5033  155.5223 H       1  UNL1        0.1239
     15 C         145.9649  140.6751  155.3380 C.ar    1  UNL1        0.0769
     16 C         145.3436  140.8741  156.6887 C.ar    1  UNL1        0.1171
     17 N         144.3252  139.7922  156.8944 N.ar    1  UNL1       -0.2282
     18 C         144.3171  138.9245  155.6709 C.ar    1  UNL1        0.1318
     19 N         145.3305  139.4701  154.7090 N.ar    1  UNL1       -0.3397
     20 H         145.5421  139.1020  153.8207 H       1  UNL1        0.1671
     21 F         150.2375  144.0978  152.8823 F       1  UNL1       -0.2018
     22 C         149.1693  143.2421  153.4962 C.ar    1  UNL1        0.1674
     23 C         147.7498  143.3623  153.0265 C.ar    1  UNL1        0.0320
     24 C         146.6817  142.5066  153.6404 C.ar    1  UNL1        0.0039
     25 C         147.0331  141.5307  154.7240 C.ar    1  UNL1        0.0195
     26 C         148.4525  141.4105  155.1937 C.ar    1  UNL1        0.0334
     27 C         149.5206  142.2662  154.5798 C.ar    1  UNL1        0.1674
     28 F         150.9402  142.1460  155.0495 F       1  UNL1       -0.2018
     29 C         139.8188  136.8520  154.0994 C.3     1  UNL1        0.0252
     30 C         138.7364  137.4670  154.9360 C.3     1  UNL1        0.0339
     31 C         137.3561  137.6331  154.3727 C.3     1  UNL1        0.1422
     32 O         137.0583  137.1841  152.9728 O.3     1  UNL1       -0.3538
     33 C         138.1407  136.5690  152.1362 C.3     1  UNL1        0.1422
     34 C         139.5209  136.4029  152.6994 C.3     1  UNL1        0.0339
@<TRIPOS>BOND
     1    21    22    1
     2    22    23   ar
     3    23    24   ar
     4    24    25   ar
     5    25    15    1
     6    15    16   ar
     7    16    17   ar
     8    17    18   ar
     9     1    18    1
    10     1     2    1
    11     2     3    1
    12     3     4    2
    13     4     5    1
    14     5     6    2
    15     6     7    1
    16     7     8    1
    17     8     9    2
    18     9    10    1
    19    10    11    2
    20     4    12    1
    21    12    29    1
    22    29    30    1
    23    30    31    1
    24    31    32    1
    25    32    33    1
    26    33    34    1
    27    12    13    1
    28    18    19   ar
    29    25    26   ar
    30    26    27   ar
    31    27    28    1
    32    27    22   ar
    33    19    15   ar
    34    13     1    1
    35    11     3    1
    36    34    29    1
    37    11     6    1
    38    13    14    1
    39    19    20    1
