@<TRIPOS>MOLECULE
*****
 26 29 0 0 0
SMALL
GASTEIGER

@<TRIPOS>ATOM
      1 C         143.9890  144.7285  164.4515 C.3     1  UNL1        0.0737
      2 C         142.6915  143.9817  164.3577 C.ar    1  UNL1        0.1409
      3 N         142.6313  142.5319  164.7381 N.ar    1  UNL1       -0.2162
      4 C         141.3338  141.7852  164.6443 C.ar    1  UNL1        0.1315
      5 C         140.0964  142.4882  164.1701 C.ar    1  UNL1        0.0491
      6 C         138.7989  141.7414  164.0763 C.ar    1  UNL1        0.0041
      7 C         137.5616  142.4444  163.6022 C.ar    1  UNL1        0.0002
      8 C         137.6218  143.8941  163.2219 C.ar    1  UNL1        0.0015
      9 C         138.9193  144.6408  163.3157 C.ar    1  UNL1        0.0192
     10 C         140.1566  143.9379  163.7898 C.ar    1  UNL1        0.0853
     11 N         141.4541  144.6847  163.8836 N.ar    1  UNL1       -0.2306
     12 C         138.7388  140.2917  164.4567 C.ar    1  UNL1        0.0001
     13 C         138.2750  139.8943  165.8267 C.ar    1  UNL1        0.0000
     14 C         138.2149  138.4445  166.2071 C.ar    1  UNL1        0.0000
     15 C         138.6185  137.3922  165.2173 C.ar    1  UNL1        0.0000
     16 C         139.0823  137.7896  163.8472 C.ar    1  UNL1        0.0000
     17 C         139.1424  139.2393  163.4669 C.ar    1  UNL1        0.0000
     18 N         141.2736  140.3355  165.0246 N.pl3   1  UNL1       -0.3131
     19 H         140.5902  139.7498  164.6255 H       1  UNL1        0.1485
     20 C         142.2547  139.7780  166.0129 C.3     1  UNL1        0.1348
     21 C         141.9262  139.7763  167.4765 C.ar    1  UNL1        0.0788
     22 C         140.6967  140.4798  167.9699 C.ar    1  UNL1        0.0165
     23 C         140.3681  140.4782  169.4335 C.ar    1  UNL1        0.0029
     24 C         141.2690  139.7730  170.4036 C.ar    1  UNL1        0.0207
     25 C         142.4985  139.0695  169.9101 C.ar    1  UNL1        0.0985
     26 N         142.8271  139.0712  168.4466 N.ar    1  UNL1       -0.2464
@<TRIPOS>BOND
     1     1     2    1
     2     2     3   ar
     3     3     4   ar
     4     4    18    1
     5    18    20    1
     6    20    21    1
     7    21    22   ar
     8    22    23   ar
     9    23    24   ar
    10    24    25   ar
    11    25    26   ar
    12     4     5   ar
    13     5     6   ar
    14     6    12    1
    15    12    13   ar
    16    13    14   ar
    17    14    15   ar
    18    15    16   ar
    19    16    17   ar
    20     6     7   ar
    21     7     8   ar
    22     8     9   ar
    23     9    10   ar
    24    10    11   ar
    25    11     2   ar
    26    26    21   ar
    27    10     5   ar
    28    17    12   ar
    29    18    19    1
@<TRIPOS>MOLECULE
*****
 26 29 0 0 0
SMALL
GASTEIGER

@<TRIPOS>ATOM
      1 C         137.7186  144.3933  163.0403 C.3     1  UNL1        0.0737
      2 C         138.9797  143.9608  163.7277 C.ar    1  UNL1        0.1409
      3 N         138.9372  142.8685  164.7550 N.ar    1  UNL1       -0.2162
      4 C         140.1983  142.4360  165.4425 C.ar    1  UNL1        0.1315
      5 C         141.5019  143.0958  165.1027 C.ar    1  UNL1        0.0491
      6 C         142.7629  142.6633  165.7902 C.ar    1  UNL1        0.0041
      7 C         144.0665  143.3230  165.4505 C.ar    1  UNL1        0.0002
      8 C         144.1090  144.4153  164.4233 C.ar    1  UNL1        0.0015
      9 C         142.8479  144.8478  163.7358 C.ar    1  UNL1        0.0192
     10 C         141.5443  144.1880  164.0755 C.ar    1  UNL1        0.0853
     11 N         140.2833  144.6205  163.3880 N.ar    1  UNL1       -0.2306
     12 C         142.7204  141.5710  166.8175 C.ar    1  UNL1        0.0001
     13 C         142.9189  140.1433  166.4027 C.ar    1  UNL1        0.0000
     14 C         142.8764  139.0510  167.4299 C.ar    1  UNL1        0.0000
     15 C         142.6354  139.3865  168.8719 C.ar    1  UNL1        0.0000
     16 C         142.4368  140.8143  169.2867 C.ar    1  UNL1        0.0000
     17 C         142.4794  141.9065  168.2594 C.ar    1  UNL1        0.0000
     18 N         140.1558  141.3437  166.4697 N.pl3   1  UNL1       -0.3131
     19 H         140.7431  141.3869  167.2586 H       1  UNL1        0.1485
     20 C         139.2184  140.1858  166.2949 C.3     1  UNL1        0.1348
     21 C         139.2506  139.3790  165.0307 C.ar    1  UNL1        0.0788
     22 C         140.2584  138.2800  164.8679 C.ar    1  UNL1        0.0165
     23 C         140.2907  137.4732  163.6038 C.ar    1  UNL1        0.0029
     24 C         139.3151  137.7654  162.5025 C.ar    1  UNL1        0.0207
     25 C         138.3072  138.8644  162.6653 C.ar    1  UNL1        0.0985
     26 N         138.2750  139.6712  163.9295 N.ar    1  UNL1       -0.2464
@<TRIPOS>BOND
     1     1     2    1
     2     2     3   ar
     3     3     4   ar
     4     4    18    1
     5    18    20    1
     6    20    21    1
     7    21    22   ar
     8    22    23   ar
     9    23    24   ar
    10    24    25   ar
    11    25    26   ar
    12     4     5   ar
    13     5     6   ar
    14     6    12    1
    15    12    13   ar
    16    13    14   ar
    17    14    15   ar
    18    15    16   ar
    19    16    17   ar
    20     6     7   ar
    21     7     8   ar
    22     8     9   ar
    23     9    10   ar
    24    10    11   ar
    25    11     2   ar
    26    26    21   ar
    27    10     5   ar
    28    17    12   ar
    29    18    19    1
@<TRIPOS>MOLECULE
*****
 26 29 0 0 0
SMALL
GASTEIGER

@<TRIPOS>ATOM
      1 C         139.7049  146.2748  161.5948 C.3     1  UNL1        0.0737
      2 C         140.3138  145.3775  162.6311 C.ar    1  UNL1        0.1409
      3 N         139.4448  144.4388  163.4146 N.ar    1  UNL1       -0.2162
      4 C         140.0537  143.5415  164.4509 C.ar    1  UNL1        0.1315
      5 C         141.5317  143.5828  164.7038 C.ar    1  UNL1        0.0491
      6 C         142.1406  142.6855  165.7402 C.ar    1  UNL1        0.0041
      7 C         143.6185  142.7268  165.9931 C.ar    1  UNL1        0.0002
      8 C         144.4875  143.6654  165.2097 C.ar    1  UNL1        0.0015
      9 C         143.8786  144.5628  164.1733 C.ar    1  UNL1        0.0192
     10 C         142.4007  144.5215  163.9204 C.ar    1  UNL1        0.0853
     11 N         141.7918  145.4188  162.8841 N.ar    1  UNL1       -0.2306
     12 C         141.2716  141.7468  166.5236 C.ar    1  UNL1        0.0001
     13 C         140.6905  142.1819  167.8362 C.ar    1  UNL1        0.0000
     14 C         139.8214  141.2432  168.6197 C.ar    1  UNL1        0.0000
     15 C         139.5335  139.8695  168.0904 C.ar    1  UNL1        0.0000
     16 C         140.1146  139.4345  166.7777 C.ar    1  UNL1        0.0000
     17 C         140.9836  140.3732  165.9943 C.ar    1  UNL1        0.0000
     18 N         139.1847  142.6028  165.2343 N.pl3   1  UNL1       -0.3131
     19 H         139.4580  142.3153  166.1354 H       1  UNL1        0.1485
     20 C         137.8993  142.1023  164.6449 C.3     1  UNL1        0.1348
     21 C         137.9258  141.0968  163.5322 C.ar    1  UNL1        0.0788
     22 C         138.3176  139.6766  163.8140 C.ar    1  UNL1        0.0165
     23 C         138.3441  138.6709  162.7013 C.ar    1  UNL1        0.0029
     24 C         137.9789  139.0856  161.3068 C.ar    1  UNL1        0.0207
     25 C         137.5871  140.5059  161.0250 C.ar    1  UNL1        0.0985
     26 N         137.5606  141.5114  162.1377 N.ar    1  UNL1       -0.2464
@<TRIPOS>BOND
     1     1     2    1
     2     2     3   ar
     3     3     4   ar
     4     4    18    1
     5    18    20    1
     6    20    21    1
     7    21    22   ar
     8    22    23   ar
     9    23    24   ar
    10    24    25   ar
    11    25    26   ar
    12     4     5   ar
    13     5     6   ar
    14     6    12    1
    15    12    13   ar
    16    13    14   ar
    17    14    15   ar
    18    15    16   ar
    19    16    17   ar
    20     6     7   ar
    21     7     8   ar
    22     8     9   ar
    23     9    10   ar
    24    10    11   ar
    25    11     2   ar
    26    26    21   ar
    27    10     5   ar
    28    17    12   ar
    29    18    19    1
@<TRIPOS>MOLECULE
*****
 26 29 0 0 0
SMALL
GASTEIGER

@<TRIPOS>ATOM
      1 C         142.1349  137.7051  160.3978 C.3     1  UNL1        0.0737
      2 C         141.3354  138.3416  161.4958 C.ar    1  UNL1        0.1409
      3 N         141.2020  139.8344  161.5579 N.ar    1  UNL1       -0.2162
      4 C         140.4025  140.4709  162.6560 C.ar    1  UNL1        0.1315
      5 C         139.7365  139.6145  163.6919 C.ar    1  UNL1        0.0491
      6 C         138.9370  140.2510  164.7900 C.ar    1  UNL1        0.0041
      7 C         138.2710  139.3948  165.8259 C.ar    1  UNL1        0.0002
      8 C         138.4044  137.9021  165.7638 C.ar    1  UNL1        0.0015
      9 C         139.2039  137.2656  164.6657 C.ar    1  UNL1        0.0192
     10 C         139.8699  138.1218  163.6298 C.ar    1  UNL1        0.0853
     11 N         140.6694  137.4853  162.5317 N.ar    1  UNL1       -0.2306
     12 C         138.8036  141.7438  164.8521 C.ar    1  UNL1        0.0001
     13 C         137.6920  142.4288  164.1138 C.ar    1  UNL1        0.0000
     14 C         137.5585  143.9216  164.1759 C.ar    1  UNL1        0.0000
     15 C         138.5367  144.7294  164.9763 C.ar    1  UNL1        0.0000
     16 C         139.6484  144.0443  165.7146 C.ar    1  UNL1        0.0000
     17 C         139.7818  142.5516  165.6524 C.ar    1  UNL1        0.0000
     18 N         140.2691  141.9636  162.7181 N.pl3   1  UNL1       -0.3131
     19 H         139.4313  142.3700  163.0378 H       1  UNL1        0.1485
     20 C         141.4120  142.8372  162.2930 C.3     1  UNL1        0.1348
     21 C         142.4691  143.2244  163.2843 C.ar    1  UNL1        0.0788
     22 C         142.7947  144.6716  163.5065 C.ar    1  UNL1        0.0165
     23 C         143.8518  145.0590  164.4978 C.ar    1  UNL1        0.0029
     24 C         144.5832  143.9990  165.2669 C.ar    1  UNL1        0.0207
     25 C         144.2575  142.5517  165.0446 C.ar    1  UNL1        0.0985
     26 N         143.2004  142.1644  164.0534 N.ar    1  UNL1       -0.2464
@<TRIPOS>BOND
     1     1     2    1
     2     2     3   ar
     3     3     4   ar
     4     4    18    1
     5    18    20    1
     6    20    21    1
     7    21    22   ar
     8    22    23   ar
     9    23    24   ar
    10    24    25   ar
    11    25    26   ar
    12     4     5   ar
    13     5     6   ar
    14     6    12    1
    15    12    13   ar
    16    13    14   ar
    17    14    15   ar
    18    15    16   ar
    19    16    17   ar
    20     6     7   ar
    21     7     8   ar
    22     8     9   ar
    23     9    10   ar
    24    10    11   ar
    25    11     2   ar
    26    26    21   ar
    27    10     5   ar
    28    17    12   ar
    29    18    19    1
@<TRIPOS>MOLECULE
*****
 26 29 0 0 0
SMALL
GASTEIGER

@<TRIPOS>ATOM
      1 C         140.2461  145.5854  161.2766 C.3     1  UNL1        0.0737
      2 C         141.1185  144.6844  162.0993 C.ar    1  UNL1        0.1409
      3 N         140.6258  144.1610  163.4160 N.ar    1  UNL1       -0.2162
      4 C         141.4982  143.2599  164.2387 C.ar    1  UNL1        0.1315
      5 C         142.8634  142.8822  163.7449 C.ar    1  UNL1        0.0491
      6 C         143.7358  141.9811  164.5676 C.ar    1  UNL1        0.0041
      7 C         145.1008  141.6034  164.0738 C.ar    1  UNL1        0.0002
      8 C         145.5935  142.1267  162.7572 C.ar    1  UNL1        0.0015
      9 C         144.7210  143.0278  161.9345 C.ar    1  UNL1        0.0192
     10 C         143.3560  143.4055  162.4283 C.ar    1  UNL1        0.0853
     11 N         142.4836  144.3066  161.6055 N.ar    1  UNL1       -0.2306
     12 C         143.2431  141.4578  165.8843 C.ar    1  UNL1        0.0001
     13 C         143.2961  142.3283  167.1046 C.ar    1  UNL1        0.0000
     14 C         142.8034  141.8050  168.4212 C.ar    1  UNL1        0.0000
     15 C         142.2577  140.4111  168.5174 C.ar    1  UNL1        0.0000
     16 C         142.2047  139.5405  167.2970 C.ar    1  UNL1        0.0000
     17 C         142.6973  140.0639  165.9804 C.ar    1  UNL1        0.0000
     18 N         141.0056  142.7366  165.5553 N.pl3   1  UNL1       -0.3131
     19 H         141.5995  142.7419  166.3405 H       1  UNL1        0.1485
     20 C         139.6080  142.2052  165.6756 C.3     1  UNL1        0.1348
     21 C         139.3242  140.7649  165.3675 C.ar    1  UNL1        0.0788
     22 C         138.6962  139.8851  166.4075 C.ar    1  UNL1        0.0165
     23 C         138.4123  138.4448  166.0993 C.ar    1  UNL1        0.0029
     24 C         138.7565  137.8842  164.7513 C.ar    1  UNL1        0.0207
     25 C         139.3846  138.7641  163.7113 C.ar    1  UNL1        0.0985
     26 N         139.6684  140.2043  164.0194 N.ar    1  UNL1       -0.2464
@<TRIPOS>BOND
     1     1     2    1
     2     2     3   ar
     3     3     4   ar
     4     4    18    1
     5    18    20    1
     6    20    21    1
     7    21    22   ar
     8    22    23   ar
     9    23    24   ar
    10    24    25   ar
    11    25    26   ar
    12     4     5   ar
    13     5     6   ar
    14     6    12    1
    15    12    13   ar
    16    13    14   ar
    17    14    15   ar
    18    15    16   ar
    19    16    17   ar
    20     6     7   ar
    21     7     8   ar
    22     8     9   ar
    23     9    10   ar
    24    10    11   ar
    25    11     2   ar
    26    26    21   ar
    27    10     5   ar
    28    17    12   ar
    29    18    19    1
@<TRIPOS>MOLECULE
*****
 26 29 0 0 0
SMALL
GASTEIGER

@<TRIPOS>ATOM
      1 C         138.8327  137.4258  165.1833 C.3     1  UNL1        0.0737
      2 C         139.9425  138.2620  164.6184 C.ar    1  UNL1        0.1409
      3 N         140.1075  139.6863  165.0592 N.ar    1  UNL1       -0.2162
      4 C         141.2173  140.5224  164.4943 C.ar    1  UNL1        0.1315
      5 C         142.1621  139.9343  163.4886 C.ar    1  UNL1        0.0491
      6 C         143.2719  140.7705  162.9237 C.ar    1  UNL1        0.0041
      7 C         144.2168  140.1825  161.9180 C.ar    1  UNL1        0.0002
      8 C         144.0518  138.7582  161.4772 C.ar    1  UNL1        0.0015
      9 C         142.9420  137.9221  162.0421 C.ar    1  UNL1        0.0192
     10 C         141.9971  138.5101  163.0478 C.ar    1  UNL1        0.0853
     11 N         140.8873  137.6739  163.6127 N.ar    1  UNL1       -0.2306
     12 C         143.4369  142.1948  163.3645 C.ar    1  UNL1        0.0001
     13 C         144.2931  142.5177  164.5530 C.ar    1  UNL1        0.0000
     14 C         144.4581  143.9420  164.9939 C.ar    1  UNL1        0.0000
     15 C         143.7668  145.0433  164.2461 C.ar    1  UNL1        0.0000
     16 C         142.9105  144.7204  163.0575 C.ar    1  UNL1        0.0000
     17 C         142.7456  143.2962  162.6168 C.ar    1  UNL1        0.0000
     18 N         141.3823  141.9467  164.9351 N.pl3   1  UNL1       -0.3131
     19 H         142.0128  142.5379  164.4638 H       1  UNL1        0.1485
     20 C         140.5865  142.4701  166.0940 C.3     1  UNL1        0.1348
     21 C         141.2247  142.5973  167.4455 C.ar    1  UNL1        0.0788
     22 C         142.6352  142.1322  167.6556 C.ar    1  UNL1        0.0165
     23 C         143.2734  142.2594  169.0071 C.ar    1  UNL1        0.0029
     24 C         142.5011  142.8518  170.1485 C.ar    1  UNL1        0.0207
     25 C         141.0905  143.3169  169.9383 C.ar    1  UNL1        0.0985
     26 N         140.4524  143.1897  168.5868 N.ar    1  UNL1       -0.2464
@<TRIPOS>BOND
     1     1     2    1
     2     2     3   ar
     3     3     4   ar
     4     4    18    1
     5    18    20    1
     6    20    21    1
     7    21    22   ar
     8    22    23   ar
     9    23    24   ar
    10    24    25   ar
    11    25    26   ar
    12     4     5   ar
    13     5     6   ar
    14     6    12    1
    15    12    13   ar
    16    13    14   ar
    17    14    15   ar
    18    15    16   ar
    19    16    17   ar
    20     6     7   ar
    21     7     8   ar
    22     8     9   ar
    23     9    10   ar
    24    10    11   ar
    25    11     2   ar
    26    26    21   ar
    27    10     5   ar
    28    17    12   ar
    29    18    19    1
@<TRIPOS>MOLECULE
*****
 26 29 0 0 0
SMALL
GASTEIGER

@<TRIPOS>ATOM
      1 C         137.8608  138.6947  166.6290 C.3     1  UNL1        0.0737
      2 C         139.1019  139.5370  166.6166 C.ar    1  UNL1        0.1409
      3 N         139.6912  139.9851  165.3119 N.ar    1  UNL1       -0.2162
      4 C         140.9323  140.8274  165.2994 C.ar    1  UNL1        0.1315
      5 C         141.5841  141.2217  166.5916 C.ar    1  UNL1        0.0491
      6 C         142.8252  142.0641  166.5791 C.ar    1  UNL1        0.0041
      7 C         143.4770  142.4584  167.8713 C.ar    1  UNL1        0.0002
      8 C         142.8878  142.0103  169.1758 C.ar    1  UNL1        0.0015
      9 C         141.6467  141.1680  169.1883 C.ar    1  UNL1        0.0192
     10 C         140.9948  140.7737  167.8962 C.ar    1  UNL1        0.0853
     11 N         139.7538  139.9313  167.9087 N.ar    1  UNL1       -0.2306
     12 C         143.4144  142.5121  165.2745 C.ar    1  UNL1        0.0001
     13 C         144.3897  141.6321  164.5504 C.ar    1  UNL1        0.0000
     14 C         144.9790  142.0801  163.2457 C.ar    1  UNL1        0.0000
     15 C         144.5929  143.4083  162.6652 C.ar    1  UNL1        0.0000
     16 C         143.6175  144.2883  163.3893 C.ar    1  UNL1        0.0000
     17 C         143.0283  143.8402  164.6939 C.ar    1  UNL1        0.0000
     18 N         141.5215  141.2755  163.9948 N.pl3   1  UNL1       -0.3131
     19 H         142.4962  141.3816  163.9055 H       1  UNL1        0.1485
     20 C         140.6257  141.5619  162.8262 C.3     1  UNL1        0.1348
     21 C         140.4264  142.9744  162.3625 C.ar    1  UNL1        0.0788
     22 C         139.6335  143.9338  163.1997 C.ar    1  UNL1        0.0165
     23 C         139.4342  145.3464  162.7360 C.ar    1  UNL1        0.0029
     24 C         140.0277  145.7995  161.4351 C.ar    1  UNL1        0.0207
     25 C         140.8206  144.8400  160.5978 C.ar    1  UNL1        0.0985
     26 N         141.0199  143.4275  161.0616 N.ar    1  UNL1       -0.2464
@<TRIPOS>BOND
     1     1     2    1
     2     2     3   ar
     3     3     4   ar
     4     4    18    1
     5    18    20    1
     6    20    21    1
     7    21    22   ar
     8    22    23   ar
     9    23    24   ar
    10    24    25   ar
    11    25    26   ar
    12     4     5   ar
    13     5     6   ar
    14     6    12    1
    15    12    13   ar
    16    13    14   ar
    17    14    15   ar
    18    15    16   ar
    19    16    17   ar
    20     6     7   ar
    21     7     8   ar
    22     8     9   ar
    23     9    10   ar
    24    10    11   ar
    25    11     2   ar
    26    26    21   ar
    27    10     5   ar
    28    17    12   ar
    29    18    19    1
@<TRIPOS>MOLECULE
*****
 26 29 0 0 0
SMALL
GASTEIGER

@<TRIPOS>ATOM
      1 C         137.3350  137.3068  166.8616 C.3     1  UNL1        0.0737
      2 C         138.2019  138.5253  166.9792 C.ar    1  UNL1        0.1409
      3 N         138.8802  139.0834  165.7632 N.ar    1  UNL1       -0.2162
      4 C         139.7470  140.3019  165.8809 C.ar    1  UNL1        0.1315
      5 C         139.9356  140.9623  167.2145 C.ar    1  UNL1        0.0491
      6 C         140.8025  142.1808  167.3321 C.ar    1  UNL1        0.0041
      7 C         140.9911  142.8412  168.6656 C.ar    1  UNL1        0.0002
      8 C         140.3128  142.2830  169.8815 C.ar    1  UNL1        0.0015
      9 C         139.4460  141.0646  169.7638 C.ar    1  UNL1        0.0192
     10 C         139.2574  140.4042  168.4303 C.ar    1  UNL1        0.0853
     11 N         138.3905  139.1857  168.3127 N.ar    1  UNL1       -0.2306
     12 C         141.4808  142.7389  166.1161 C.ar    1  UNL1        0.0001
     13 C         140.7319  143.6540  165.1932 C.ar    1  UNL1        0.0000
     14 C         141.4102  144.2121  163.9772 C.ar    1  UNL1        0.0000
     15 C         142.8373  143.8551  163.6842 C.ar    1  UNL1        0.0000
     16 C         143.5862  142.9399  164.6072 C.ar    1  UNL1        0.0000
     17 C         142.9079  142.3819  165.8231 C.ar    1  UNL1        0.0000
     18 N         140.4253  140.8600  164.6650 N.pl3   1  UNL1       -0.3131
     19 H         140.9640  141.6811  164.7351 H       1  UNL1        0.1485
     20 C         140.2827  140.1672  163.3421 C.3     1  UNL1        0.1348
     21 C         141.4522  139.4417  162.7456 C.ar    1  UNL1        0.0788
     22 C         142.8154  139.5887  163.3537 C.ar    1  UNL1        0.0165
     23 C         143.9850  138.8632  162.7571 C.ar    1  UNL1        0.0029
     24 C         143.7912  137.9905  161.5526 C.ar    1  UNL1        0.0207
     25 C         142.4278  137.8435  160.9445 C.ar    1  UNL1        0.0985
     26 N         141.2583  138.5691  161.5411 N.ar    1  UNL1       -0.2464
@<TRIPOS>BOND
     1     1     2    1
     2     2     3   ar
     3     3     4   ar
     4     4    18    1
     5    18    20    1
     6    20    21    1
     7    21    22   ar
     8    22    23   ar
     9    23    24   ar
    10    24    25   ar
    11    25    26   ar
    12     4     5   ar
    13     5     6   ar
    14     6    12    1
    15    12    13   ar
    16    13    14   ar
    17    14    15   ar
    18    15    16   ar
    19    16    17   ar
    20     6     7   ar
    21     7     8   ar
    22     8     9   ar
    23     9    10   ar
    24    10    11   ar
    25    11     2   ar
    26    26    21   ar
    27    10     5   ar
    28    17    12   ar
    29    18    19    1
@<TRIPOS>MOLECULE
*****
 26 29 0 0 0
SMALL
GASTEIGER

@<TRIPOS>ATOM
      1 C         137.6063  138.4248  167.0671 C.3     1  UNL1        0.0737
      2 C         138.8777  139.2191  167.0152 C.ar    1  UNL1        0.1409
      3 N         139.6153  139.3701  165.7178 N.ar    1  UNL1       -0.2162
      4 C         140.8867  140.1643  165.6659 C.ar    1  UNL1        0.1315
      5 C         141.4205  140.8075  166.9115 C.ar    1  UNL1        0.0491
      6 C         142.6920  141.6018  166.8596 C.ar    1  UNL1        0.0041
      7 C         143.2258  142.2450  168.1051 C.ar    1  UNL1        0.0002
      8 C         142.4882  142.0940  169.4024 C.ar    1  UNL1        0.0015
      9 C         141.2168  141.2997  169.4543 C.ar    1  UNL1        0.0192
     10 C         140.6830  140.6565  168.2088 C.ar    1  UNL1        0.0853
     11 N         139.4116  139.8623  168.2607 N.ar    1  UNL1       -0.2306
     12 C         143.4295  141.7528  165.5622 C.ar    1  UNL1        0.0001
     13 C         143.2979  143.0181  164.7675 C.ar    1  UNL1        0.0000
     14 C         144.0355  143.1691  163.4700 C.ar    1  UNL1        0.0000
     15 C         144.9047  142.0547  162.9674 C.ar    1  UNL1        0.0000
     16 C         145.0363  140.7894  163.7622 C.ar    1  UNL1        0.0000
     17 C         144.2987  140.6384  165.0595 C.ar    1  UNL1        0.0000
     18 N         141.6243  140.3153  164.3686 N.pl3   1  UNL1       -0.3131
     19 H         142.6069  140.2566  164.3512 H       1  UNL1        0.1485
     20 C         140.8648  140.5558  163.0976 C.3     1  UNL1        0.1348
     21 C         139.8937  141.6956  163.0083 C.ar    1  UNL1        0.0788
     22 C         140.3836  143.0739  162.6764 C.ar    1  UNL1        0.0165
     23 C         139.4125  144.2137  162.5872 C.ar    1  UNL1        0.0029
     24 C         137.9517  143.9752  162.8298 C.ar    1  UNL1        0.0207
     25 C         137.4618  142.5967  163.1618 C.ar    1  UNL1        0.0985
     26 N         138.4328  141.4570  163.2510 N.ar    1  UNL1       -0.2464
@<TRIPOS>BOND
     1     1     2    1
     2     2     3   ar
     3     3     4   ar
     4     4    18    1
     5    18    20    1
     6    20    21    1
     7    21    22   ar
     8    22    23   ar
     9    23    24   ar
    10    24    25   ar
    11    25    26   ar
    12     4     5   ar
    13     5     6   ar
    14     6    12    1
    15    12    13   ar
    16    13    14   ar
    17    14    15   ar
    18    15    16   ar
    19    16    17   ar
    20     6     7   ar
    21     7     8   ar
    22     8     9   ar
    23     9    10   ar
    24    10    11   ar
    25    11     2   ar
    26    26    21   ar
    27    10     5   ar
    28    17    12   ar
    29    18    19    1
