@<TRIPOS>MOLECULE
*****
 32 36 0 0 0
SMALL
GASTEIGER

@<TRIPOS>ATOM
      1 C         138.2509  138.9403  161.8585 C.3     1  UNL1        0.0731
      2 N         138.4102  140.2132  162.6358 N.3     1  UNL1       -0.2712
      3 C         137.3077  140.9874  163.2954 C.3     1  UNL1        0.0738
      4 C         137.9162  142.1880  163.9573 C.3     1  UNL1        0.0372
      5 C         137.6108  143.4086  164.7740 C.3     1  UNL1        0.0245
      6 C         138.9007  144.1308  165.0283 C.3     1  UNL1        0.0909
      7 N         140.0033  143.3566  164.3688 N.pl3   1  UNL1       -0.3072
      8 C         139.3948  142.1559  163.7068 C.3     1  UNL1        0.0901
      9 C         139.7001  140.9353  162.8901 C.3     1  UNL1        0.0921
     10 C         141.4588  143.7193  164.3708 C.ar    1  UNL1        0.0575
     11 C         142.4231  142.9465  165.2209 C.ar    1  UNL1        0.0152
     12 C         143.8786  143.3093  165.2229 C.ar    1  UNL1        0.0013
     13 C         144.3697  144.4448  164.3748 C.ar    1  UNL1        0.0008
     14 C         143.4053  145.2177  163.5247 C.ar    1  UNL1        0.0115
     15 C         141.9499  144.8549  163.5226 C.ar    1  UNL1        0.0817
     16 C         140.9855  145.6277  162.6725 C.1     1  UNL1        0.1017
     17 N         140.0211  146.4005  161.8224 N.1     1  UNL1       -0.1908
     18 C         139.4242  138.0252  161.6691 C.3     1  UNL1        0.0294
     19 C         140.5609  138.0507  162.6476 C.3     1  UNL1        0.0666
     20 S         140.4036  137.4141  163.9967 S.3     1  UNL1       -0.0756
     21 C         141.9114  139.5007  166.0022 C.3     1  UNL1        0.1340
     22 N         140.4563  139.1382  166.0386 N.ar    1  UNL1       -0.2872
     23 C         139.7633  138.1792  165.1168 C.ar    1  UNL1        0.1933
     24 N         138.3174  138.1194  165.5117 N.ar    1  UNL1       -0.1221
     25 N         138.1169  139.0415  166.6777 N.ar    1  UNL1       -0.1266
     26 C         139.4388  139.6713  167.0034 C.ar    1  UNL1        0.1862
     27 C         139.6977  140.6603  168.1010 C.ar    1  UNL1        0.1362
     28 C         139.3810  140.3027  169.5229 C.ar    1  UNL1        0.1211
     29 N         139.6399  141.2917  170.6205 N.ar    1  UNL1       -0.2390
     30 C         140.2155  142.6384  170.2961 C.ar    1  UNL1        0.1195
     31 C         140.5322  142.9961  168.8742 C.ar    1  UNL1        0.1196
     32 N         140.2732  142.0069  167.7767 N.ar    1  UNL1       -0.2375
@<TRIPOS>BOND
     1    21    22    1
     2    22    23   ar
     3    23    20    1
     4    20    19    1
     5    19    18    1
     6    18     1    1
     7     1     2    1
     8     2     3    1
     9     3     4    1
    10     4     5    1
    11     5     6    1
    12     6     7    1
    13     7    10    1
    14    10    11   ar
    15    11    12   ar
    16    12    13   ar
    17    13    14   ar
    18    14    15   ar
    19    15    16    1
    20    16    17    3
    21     7     8    1
    22     8     9    1
    23    23    24   ar
    24    24    25   ar
    25    25    26   ar
    26    26    27    1
    27    27    28   ar
    28    28    29   ar
    29    29    30   ar
    30    30    31   ar
    31    31    32   ar
    32    26    22   ar
    33    32    27   ar
    34     9     2    1
    35     8     4    1
    36    15    10   ar
@<TRIPOS>MOLECULE
*****
 32 36 0 0 0
SMALL
GASTEIGER

@<TRIPOS>ATOM
      1 C         142.6124  144.7979  162.9574 C.3     1  UNL1        0.0731
      2 N         141.4928  143.8659  162.5998 N.3     1  UNL1       -0.2712
      3 C         140.6369  143.9466  161.3706 C.3     1  UNL1        0.0738
      4 C         139.6478  142.8201  161.4198 C.3     1  UNL1        0.0372
      5 C         138.5074  142.1737  160.6905 C.3     1  UNL1        0.0245
      6 C         138.0471  140.9973  161.4993 C.3     1  UNL1        0.0909
      7 N         138.9031  140.9166  162.7285 N.pl3   1  UNL1       -0.3072
      8 C         139.8923  142.0431  162.6794 C.3     1  UNL1        0.0901
      9 C         141.0326  142.6894  163.4086 C.3     1  UNL1        0.0921
     10 C         138.7897  139.8896  163.8160 C.ar    1  UNL1        0.0575
     11 C         138.0413  140.2106  165.0756 C.ar    1  UNL1        0.0152
     12 C         137.9279  139.1837  166.1631 C.ar    1  UNL1        0.0013
     13 C         138.5629  137.8357  165.9909 C.ar    1  UNL1        0.0008
     14 C         139.3114  137.5147  164.7312 C.ar    1  UNL1        0.0115
     15 C         139.4248  138.5416  163.6437 C.ar    1  UNL1        0.0817
     16 C         140.1732  138.2206  162.3841 C.1     1  UNL1        0.1017
     17 N         140.9216  137.8996  161.1244 N.1     1  UNL1       -0.1908
     18 C         144.0358  144.3387  162.8436 C.3     1  UNL1        0.0294
     19 C         144.3415  142.9636  162.3281 C.3     1  UNL1        0.0666
     20 S         145.0858  141.9877  163.1905 S.3     1  UNL1       -0.0756
     21 C         143.7708  142.7189  166.0863 C.3     1  UNL1        0.1340
     22 N         143.7261  141.3806  165.4103 N.ar    1  UNL1       -0.2872
     23 C         144.3305  141.0445  164.0793 C.ar    1  UNL1        0.1933
     24 N         144.0472  139.5996  163.7931 N.ar    1  UNL1       -0.1221
     25 N         143.2676  139.0426  164.9472 N.ar    1  UNL1       -0.1266
     26 C         143.0692  140.1434  165.9468 C.ar    1  UNL1        0.1862
     27 C         142.3416  140.0272  167.2534 C.ar    1  UNL1        0.1362
     28 C         140.9664  140.6080  167.4003 C.ar    1  UNL1        0.1211
     29 N         140.2388  140.4919  168.7068 N.ar    1  UNL1       -0.2390
     30 C         140.8865  139.7949  169.8665 C.ar    1  UNL1        0.1195
     31 C         142.2617  139.2141  169.7197 C.ar    1  UNL1        0.1196
     32 N         142.9892  139.3303  168.4130 N.ar    1  UNL1       -0.2375
@<TRIPOS>BOND
     1    21    22    1
     2    22    23   ar
     3    23    20    1
     4    20    19    1
     5    19    18    1
     6    18     1    1
     7     1     2    1
     8     2     3    1
     9     3     4    1
    10     4     5    1
    11     5     6    1
    12     6     7    1
    13     7    10    1
    14    10    11   ar
    15    11    12   ar
    16    12    13   ar
    17    13    14   ar
    18    14    15   ar
    19    15    16    1
    20    16    17    3
    21     7     8    1
    22     8     9    1
    23    23    24   ar
    24    24    25   ar
    25    25    26   ar
    26    26    27    1
    27    27    28   ar
    28    28    29   ar
    29    29    30   ar
    30    30    31   ar
    31    31    32   ar
    32    26    22   ar
    33    32    27   ar
    34     9     2    1
    35     8     4    1
    36    15    10   ar
@<TRIPOS>MOLECULE
*****
 32 36 0 0 0
SMALL
GASTEIGER

@<TRIPOS>ATOM
      1 C         141.9295  137.6700  162.8079 C.3     1  UNL1        0.0731
      2 N         142.5717  139.0254  162.8332 N.3     1  UNL1       -0.2712
      3 C         143.9754  139.3279  163.2669 C.3     1  UNL1        0.0738
      4 C         144.1941  140.8057  163.1310 C.3     1  UNL1        0.0372
      5 C         145.1969  141.9060  163.3151 C.3     1  UNL1        0.0245
      6 C         144.5481  143.1967  162.9112 C.3     1  UNL1        0.0909
      7 N         143.1444  142.8941  162.4775 N.pl3   1  UNL1       -0.3072
      8 C         142.9256  141.4164  162.6134 C.3     1  UNL1        0.0901
      9 C         141.9229  140.3161  162.4293 C.3     1  UNL1        0.0921
     10 C         142.1364  143.8938  161.9931 C.ar    1  UNL1        0.0575
     11 C         141.2878  144.6411  162.9786 C.ar    1  UNL1        0.0152
     12 C         140.2798  145.6408  162.4941 C.ar    1  UNL1        0.0013
     13 C         140.1204  145.8930  161.0241 C.ar    1  UNL1        0.0008
     14 C         140.9690  145.1456  160.0385 C.ar    1  UNL1        0.0115
     15 C         141.9770  144.1460  160.5230 C.ar    1  UNL1        0.0817
     16 C         142.8256  143.3986  159.5375 C.1     1  UNL1        0.1017
     17 N         143.6742  142.6512  158.5520 N.1     1  UNL1       -0.1908
     18 C         140.8646  137.3259  163.8067 C.3     1  UNL1        0.0294
     19 C         139.4294  137.6500  163.5147 C.3     1  UNL1        0.0666
     20 S         138.8024  138.8773  164.1066 S.3     1  UNL1       -0.0756
     21 C         141.0705  140.3692  165.9176 C.3     1  UNL1        0.1340
     22 N         139.8069  139.7422  166.4278 N.ar    1  UNL1       -0.2872
     23 C         138.7644  139.0565  165.5954 C.ar    1  UNL1        0.1933
     24 N         137.6772  138.5813  166.5131 N.ar    1  UNL1       -0.1221
     25 N         138.0478  138.9733  167.9128 N.ar    1  UNL1       -0.1266
     26 C         139.3640  139.6908  167.8601 C.ar    1  UNL1        0.1862
     27 C         140.1069  140.2574  169.0336 C.ar    1  UNL1        0.1362
     28 C         139.4514  141.2802  169.9134 C.ar    1  UNL1        0.1211
     29 N         140.1943  141.8468  171.0869 N.ar    1  UNL1       -0.2390
     30 C         141.5928  141.3905  171.3805 C.ar    1  UNL1        0.1195
     31 C         142.2483  140.3677  170.5007 C.ar    1  UNL1        0.1196
     32 N         141.5053  139.8011  169.3272 N.ar    1  UNL1       -0.2375
@<TRIPOS>BOND
     1    21    22    1
     2    22    23   ar
     3    23    20    1
     4    20    19    1
     5    19    18    1
     6    18     1    1
     7     1     2    1
     8     2     3    1
     9     3     4    1
    10     4     5    1
    11     5     6    1
    12     6     7    1
    13     7    10    1
    14    10    11   ar
    15    11    12   ar
    16    12    13   ar
    17    13    14   ar
    18    14    15   ar
    19    15    16    1
    20    16    17    3
    21     7     8    1
    22     8     9    1
    23    23    24   ar
    24    24    25   ar
    25    25    26   ar
    26    26    27    1
    27    27    28   ar
    28    28    29   ar
    29    29    30   ar
    30    30    31   ar
    31    31    32   ar
    32    26    22   ar
    33    32    27   ar
    34     9     2    1
    35     8     4    1
    36    15    10   ar
@<TRIPOS>MOLECULE
*****
 32 36 0 0 0
SMALL
GASTEIGER

@<TRIPOS>ATOM
      1 C         138.4377  138.3594  162.2046 C.3     1  UNL1        0.0731
      2 N         139.0647  139.5263  161.5008 N.3     1  UNL1       -0.2712
      3 C         138.9369  139.8480  160.0413 C.3     1  UNL1        0.0738
      4 C         139.7228  141.0968  159.7714 C.3     1  UNL1        0.0372
      5 C         140.1295  142.0675  158.7026 C.3     1  UNL1        0.0245
      6 C         140.9944  143.1175  159.3347 C.3     1  UNL1        0.0909
      7 N         141.1222  142.7957  160.7942 N.pl3   1  UNL1       -0.3072
      8 C         140.3363  141.5469  161.0641 C.3     1  UNL1        0.0901
      9 C         139.9296  140.5762  162.1329 C.3     1  UNL1        0.0921
     10 C         141.8994  143.5843  161.8062 C.ar    1  UNL1        0.0575
     11 C         143.3831  143.3978  161.9238 C.ar    1  UNL1        0.0152
     12 C         144.1603  144.1864  162.9357 C.ar    1  UNL1        0.0013
     13 C         143.4538  145.1616  163.8300 C.ar    1  UNL1        0.0008
     14 C         141.9701  145.3482  163.7125 C.ar    1  UNL1        0.0115
     15 C         141.1929  144.5596  162.7005 C.ar    1  UNL1        0.0817
     16 C         139.7092  144.7461  162.5830 C.1     1  UNL1        0.1017
     17 N         138.2255  144.9327  162.4654 N.1     1  UNL1       -0.1908
     18 C         139.2785  137.4609  163.0624 C.3     1  UNL1        0.0294
     19 C         139.3939  137.7224  164.5349 C.3     1  UNL1        0.0666
     20 S         138.5605  138.7933  165.1741 S.3     1  UNL1       -0.0756
     21 C         141.0348  140.8224  165.8147 C.3     1  UNL1        0.1340
     22 N         140.0718  140.2616  166.8188 N.ar    1  UNL1       -0.2872
     23 C         138.9345  139.3290  166.5243 C.ar    1  UNL1        0.1933
     24 N         138.2369  139.0259  167.8172 N.ar    1  UNL1       -0.1221
     25 N         138.9430  139.7713  168.9107 N.ar    1  UNL1       -0.1266
     26 C         140.0771  140.5350  168.2937 C.ar    1  UNL1        0.1862
     27 C         141.0463  141.4172  169.0234 C.ar    1  UNL1        0.1362
     28 C         140.5806  142.7145  169.6151 C.ar    1  UNL1        0.1211
     29 N         141.5498  143.5967  170.3449 N.ar    1  UNL1       -0.2390
     30 C         142.9846  143.1815  170.4829 C.ar    1  UNL1        0.1195
     31 C         143.4502  141.8841  169.8912 C.ar    1  UNL1        0.1196
     32 N         142.4810  141.0020  169.1614 N.ar    1  UNL1       -0.2375
@<TRIPOS>BOND
     1    21    22    1
     2    22    23   ar
     3    23    20    1
     4    20    19    1
     5    19    18    1
     6    18     1    1
     7     1     2    1
     8     2     3    1
     9     3     4    1
    10     4     5    1
    11     5     6    1
    12     6     7    1
    13     7    10    1
    14    10    11   ar
    15    11    12   ar
    16    12    13   ar
    17    13    14   ar
    18    14    15   ar
    19    15    16    1
    20    16    17    3
    21     7     8    1
    22     8     9    1
    23    23    24   ar
    24    24    25   ar
    25    25    26   ar
    26    26    27    1
    27    27    28   ar
    28    28    29   ar
    29    29    30   ar
    30    30    31   ar
    31    31    32   ar
    32    26    22   ar
    33    32    27   ar
    34     9     2    1
    35     8     4    1
    36    15    10   ar
@<TRIPOS>MOLECULE
*****
 32 36 0 0 0
SMALL
GASTEIGER

@<TRIPOS>ATOM
      1 C         138.4085  137.8547  162.7994 C.3     1  UNL1        0.0731
      2 N         139.5056  138.1181  163.7879 N.3     1  UNL1       -0.2712
      3 C         140.8852  137.5306  163.7512 C.3     1  UNL1        0.0738
      4 C         141.6478  138.0646  164.9273 C.3     1  UNL1        0.0372
      5 C         142.9719  138.0316  165.6314 C.3     1  UNL1        0.0245
      6 C         142.8819  138.9287  166.8303 C.3     1  UNL1        0.0909
      7 N         141.5022  139.5163  166.8669 N.pl3   1  UNL1       -0.3072
      8 C         140.7395  138.9822  165.6908 C.3     1  UNL1        0.0901
      9 C         139.4155  139.0153  164.9867 C.3     1  UNL1        0.0921
     10 C         140.9773  140.4703  167.8986 C.ar    1  UNL1        0.0575
     11 C         139.8899  140.0370  168.8365 C.ar    1  UNL1        0.0152
     12 C         139.3650  140.9911  169.8682 C.ar    1  UNL1        0.0013
     13 C         139.9276  142.3784  169.9619 C.ar    1  UNL1        0.0008
     14 C         141.0150  142.8118  169.0239 C.ar    1  UNL1        0.0115
     15 C         141.5399  141.8577  167.9923 C.ar    1  UNL1        0.0817
     16 C         142.6273  142.2910  167.0543 C.1     1  UNL1        0.1017
     17 N         143.7147  142.7243  166.1164 N.1     1  UNL1       -0.1908
     18 C         138.6886  137.9383  161.3282 C.3     1  UNL1        0.0294
     19 C         138.4657  139.2273  160.5942 C.3     1  UNL1        0.0666
     20 S         137.7265  140.3507  161.2587 S.3     1  UNL1       -0.0756
     21 C         140.8288  140.7551  162.1871 C.3     1  UNL1        0.1340
     22 N         139.8382  141.8497  161.9212 N.ar    1  UNL1       -0.2872
     23 C         138.4122  141.6638  161.4945 C.ar    1  UNL1        0.1933
     24 N         137.7923  143.0215  161.3450 N.ar    1  UNL1       -0.1221
     25 N         138.8352  144.0465  161.6793 N.ar    1  UNL1       -0.1266
     26 C         140.0996  143.3223  162.0355 C.ar    1  UNL1        0.1862
     27 C         141.3975  143.9590  162.4356 C.ar    1  UNL1        0.1362
     28 C         142.6389  143.6987  161.6348 C.ar    1  UNL1        0.1211
     29 N         143.9368  144.3354  162.0349 N.ar    1  UNL1       -0.2390
     30 C         143.9933  145.2324  163.2358 C.ar    1  UNL1        0.1195
     31 C         142.7519  145.4927  164.0366 C.ar    1  UNL1        0.1196
     32 N         141.4540  144.8560  163.6365 N.ar    1  UNL1       -0.2375
@<TRIPOS>BOND
     1    21    22    1
     2    22    23   ar
     3    23    20    1
     4    20    19    1
     5    19    18    1
     6    18     1    1
     7     1     2    1
     8     2     3    1
     9     3     4    1
    10     4     5    1
    11     5     6    1
    12     6     7    1
    13     7    10    1
    14    10    11   ar
    15    11    12   ar
    16    12    13   ar
    17    13    14   ar
    18    14    15   ar
    19    15    16    1
    20    16    17    3
    21     7     8    1
    22     8     9    1
    23    23    24   ar
    24    24    25   ar
    25    25    26   ar
    26    26    27    1
    27    27    28   ar
    28    28    29   ar
    29    29    30   ar
    30    30    31   ar
    31    31    32   ar
    32    26    22   ar
    33    32    27   ar
    34     9     2    1
    35     8     4    1
    36    15    10   ar
@<TRIPOS>MOLECULE
*****
 32 36 0 0 0
SMALL
GASTEIGER

@<TRIPOS>ATOM
      1 C         142.8274  138.0147  161.9807 C.3     1  UNL1        0.0731
      2 N         141.6914  138.3274  162.9089 N.3     1  UNL1       -0.2712
      3 C         140.8760  137.3267  163.6729 C.3     1  UNL1        0.0738
      4 C         139.8520  138.0766  164.4723 C.3     1  UNL1        0.0372
      5 C         138.7151  137.9215  165.4385 C.3     1  UNL1        0.0245
      6 C         138.1950  139.2899  165.7658 C.3     1  UNL1        0.0909
      7 N         139.0105  140.2907  165.0018 N.pl3   1  UNL1       -0.3072
      8 C         140.0345  139.5408  164.2024 C.3     1  UNL1        0.0901
      9 C         141.1713  139.6958  163.2362 C.3     1  UNL1        0.0921
     10 C         138.8330  141.7798  165.0319 C.ar    1  UNL1        0.0575
     11 C         137.7224  142.4187  164.2521 C.ar    1  UNL1        0.0152
     12 C         137.5449  143.9079  164.2823 C.ar    1  UNL1        0.0013
     13 C         138.4781  144.7582  165.0923 C.ar    1  UNL1        0.0008
     14 C         139.5888  144.1193  165.8722 C.ar    1  UNL1        0.0115
     15 C         139.7663  142.6301  165.8420 C.ar    1  UNL1        0.0817
     16 C         140.8769  141.9912  166.6219 C.1     1  UNL1        0.1017
     17 N         141.9876  141.3523  167.4017 N.1     1  UNL1       -0.1908
     18 C         144.2268  138.4110  162.3478 C.3     1  UNL1        0.0294
     19 C         144.4763  139.2251  163.5828 C.3     1  UNL1        0.0666
     20 S         145.0505  140.6060  163.4675 S.3     1  UNL1       -0.0756
     21 C         143.5930  141.5874  160.7175 C.3     1  UNL1        0.1340
     22 N         143.4681  142.2393  162.0627 N.ar    1  UNL1       -0.2872
     23 C         144.1381  141.7882  163.3267 C.ar    1  UNL1        0.1933
     24 N         143.7354  142.7269  164.4252 N.ar    1  UNL1       -0.1221
     25 N         142.8166  143.7581  163.8401 N.ar    1  UNL1       -0.1266
     26 C         142.6514  143.4568  162.3800 C.ar    1  UNL1        0.1862
     27 C         141.8161  144.2362  161.4078 C.ar    1  UNL1        0.1362
     28 C         140.4995  144.8094  161.8413 C.ar    1  UNL1        0.1211
     29 N         139.6643  145.5887  160.8692 N.ar    1  UNL1       -0.2390
     30 C         140.1457  145.7948  159.4636 C.ar    1  UNL1        0.1195
     31 C         141.4624  145.2216  159.0301 C.ar    1  UNL1        0.1196
     32 N         142.2976  144.4422  160.0023 N.ar    1  UNL1       -0.2375
@<TRIPOS>BOND
     1    21    22    1
     2    22    23   ar
     3    23    20    1
     4    20    19    1
     5    19    18    1
     6    18     1    1
     7     1     2    1
     8     2     3    1
     9     3     4    1
    10     4     5    1
    11     5     6    1
    12     6     7    1
    13     7    10    1
    14    10    11   ar
    15    11    12   ar
    16    12    13   ar
    17    13    14   ar
    18    14    15   ar
    19    15    16    1
    20    16    17    3
    21     7     8    1
    22     8     9    1
    23    23    24   ar
    24    24    25   ar
    25    25    26   ar
    26    26    27    1
    27    27    28   ar
    28    28    29   ar
    29    29    30   ar
    30    30    31   ar
    31    31    32   ar
    32    26    22   ar
    33    32    27   ar
    34     9     2    1
    35     8     4    1
    36    15    10   ar
@<TRIPOS>MOLECULE
*****
 32 36 0 0 0
SMALL
GASTEIGER

@<TRIPOS>ATOM
      1 C         138.5853  137.5588  163.3514 C.3     1  UNL1        0.0731
      2 N         139.7667  138.0366  164.1427 N.3     1  UNL1       -0.2712
      3 C         141.1936  137.6247  163.9322 C.3     1  UNL1        0.0738
      4 C         142.0374  138.3437  164.9427 C.3     1  UNL1        0.0372
      5 C         143.4408  138.5335  165.4372 C.3     1  UNL1        0.0245
      6 C         143.4027  139.5069  166.5779 C.3     1  UNL1        0.0909
      7 N         141.9757  139.9187  166.7883 N.pl3   1  UNL1       -0.3072
      8 C         141.1319  139.1998  165.7778 C.3     1  UNL1        0.0901
      9 C         139.7286  139.0100  165.2833 C.3     1  UNL1        0.0921
     10 C         141.4796  140.8806  167.8270 C.ar    1  UNL1        0.0575
     11 C         140.7890  142.1449  167.4094 C.ar    1  UNL1        0.0152
     12 C         140.2929  143.1067  168.4480 C.ar    1  UNL1        0.0013
     13 C         140.4875  142.8042  169.9043 C.ar    1  UNL1        0.0008
     14 C         141.1781  141.5398  170.3219 C.ar    1  UNL1        0.0115
     15 C         141.6742  140.5780  169.2832 C.ar    1  UNL1        0.0817
     16 C         142.3648  139.3136  169.7008 C.1     1  UNL1        0.1017
     17 N         143.0554  138.0493  170.1184 N.1     1  UNL1       -0.1908
     18 C         138.4542  137.9267  161.9032 C.3     1  UNL1        0.0294
     19 C         137.5326  139.0364  161.4916 C.3     1  UNL1        0.0666
     20 S         138.0865  140.3959  161.1835 S.3     1  UNL1       -0.0756
     21 C         141.3181  139.9704  161.0253 C.3     1  UNL1        0.1340
     22 N         140.5885  140.8203  162.0230 N.ar    1  UNL1       -0.2872
     23 C         139.1031  141.0159  162.0956 C.ar    1  UNL1        0.1933
     24 N         138.8127  141.9404  163.2407 N.ar    1  UNL1       -0.1221
     25 N         140.1187  142.3162  163.8757 N.ar    1  UNL1       -0.1266
     26 C         141.2162  141.6240  163.1231 C.ar    1  UNL1        0.1862
     27 C         142.6837  141.7187  163.4188 C.ar    1  UNL1        0.1362
     28 C         143.1731  142.6339  164.5018 C.ar    1  UNL1        0.1211
     29 N         144.6406  142.7287  164.7975 N.ar    1  UNL1       -0.2390
     30 C         145.6188  141.9082  164.0100 C.ar    1  UNL1        0.1195
     31 C         145.1294  140.9930  162.9269 C.ar    1  UNL1        0.1196
     32 N         143.6619  140.8983  162.6313 N.ar    1  UNL1       -0.2375
@<TRIPOS>BOND
     1    21    22    1
     2    22    23   ar
     3    23    20    1
     4    20    19    1
     5    19    18    1
     6    18     1    1
     7     1     2    1
     8     2     3    1
     9     3     4    1
    10     4     5    1
    11     5     6    1
    12     6     7    1
    13     7    10    1
    14    10    11   ar
    15    11    12   ar
    16    12    13   ar
    17    13    14   ar
    18    14    15   ar
    19    15    16    1
    20    16    17    3
    21     7     8    1
    22     8     9    1
    23    23    24   ar
    24    24    25   ar
    25    25    26   ar
    26    26    27    1
    27    27    28   ar
    28    28    29   ar
    29    29    30   ar
    30    30    31   ar
    31    31    32   ar
    32    26    22   ar
    33    32    27   ar
    34     9     2    1
    35     8     4    1
    36    15    10   ar
@<TRIPOS>MOLECULE
*****
 32 36 0 0 0
SMALL
GASTEIGER

@<TRIPOS>ATOM
      1 C         138.1967  144.0692  162.9006 C.3     1  UNL1        0.0731
      2 N         138.4554  142.6706  163.3770 N.3     1  UNL1       -0.2712
      3 C         138.0476  141.4100  162.6737 C.3     1  UNL1        0.0738
      4 C         138.5076  140.2474  163.5023 C.3     1  UNL1        0.0372
      5 C         138.5398  138.7497  163.5798 C.3     1  UNL1        0.0245
      6 C         139.2518  138.3661  164.8431 C.3     1  UNL1        0.0909
      7 N         139.6596  139.6267  165.5464 N.pl3   1  UNL1       -0.3072
      8 C         139.1997  140.7894  164.7177 C.3     1  UNL1        0.0901
      9 C         139.1674  142.2870  164.6403 C.3     1  UNL1        0.0921
     10 C         140.3978  139.7100  166.8495 C.ar    1  UNL1        0.0575
     11 C         139.6508  140.0008  168.1174 C.ar    1  UNL1        0.0152
     12 C         140.3890  140.0841  169.4205 C.ar    1  UNL1        0.0013
     13 C         141.8741  139.8766  169.4558 C.ar    1  UNL1        0.0008
     14 C         142.6212  139.5858  168.1879 C.ar    1  UNL1        0.0115
     15 C         141.8830  139.5025  166.8848 C.ar    1  UNL1        0.0817
     16 C         142.6300  139.2117  165.6169 C.1     1  UNL1        0.1017
     17 N         143.3769  138.9210  164.3491 N.1     1  UNL1       -0.1908
     18 C         139.2769  145.1056  162.9953 C.3     1  UNL1        0.0294
     19 C         139.5745  145.9884  161.8196 C.3     1  UNL1        0.0666
     20 S         140.5595  145.5448  160.7790 S.3     1  UNL1       -0.0756
     21 C         140.0064  142.4527  159.8945 C.3     1  UNL1        0.1340
     22 N         141.2059  142.9547  160.6422 N.ar    1  UNL1       -0.2872
     23 C         141.4602  144.3760  161.0488 C.ar    1  UNL1        0.1933
     24 N         142.7732  144.4234  161.7725 N.ar    1  UNL1       -0.1221
     25 N         143.3305  143.0314  161.8133 N.ar    1  UNL1       -0.1266
     26 C         142.3619  142.1236  161.1147 C.ar    1  UNL1        0.1862
     27 C         142.5212  140.6445  160.9224 C.ar    1  UNL1        0.1362
     28 C         143.7236  140.1068  160.2048 C.ar    1  UNL1        0.1211
     29 N         143.8830  138.6277  160.0125 N.ar    1  UNL1       -0.2390
     30 C         142.8398  137.6864  160.5379 C.ar    1  UNL1        0.1195
     31 C         141.6374  138.2242  161.2556 C.ar    1  UNL1        0.1196
     32 N         141.4782  139.7033  161.4478 N.ar    1  UNL1       -0.2375
@<TRIPOS>BOND
     1    21    22    1
     2    22    23   ar
     3    23    20    1
     4    20    19    1
     5    19    18    1
     6    18     1    1
     7     1     2    1
     8     2     3    1
     9     3     4    1
    10     4     5    1
    11     5     6    1
    12     6     7    1
    13     7    10    1
    14    10    11   ar
    15    11    12   ar
    16    12    13   ar
    17    13    14   ar
    18    14    15   ar
    19    15    16    1
    20    16    17    3
    21     7     8    1
    22     8     9    1
    23    23    24   ar
    24    24    25   ar
    25    25    26   ar
    26    26    27    1
    27    27    28   ar
    28    28    29   ar
    29    29    30   ar
    30    30    31   ar
    31    31    32   ar
    32    26    22   ar
    33    32    27   ar
    34     9     2    1
    35     8     4    1
    36    15    10   ar
@<TRIPOS>MOLECULE
*****
 32 36 0 0 0
SMALL
GASTEIGER

@<TRIPOS>ATOM
      1 C         143.7151  138.3251  162.4726 C.3     1  UNL1        0.0731
      2 N         142.3986  138.5079  163.1679 N.3     1  UNL1       -0.2712
      3 C         141.4914  137.4109  163.6407 C.3     1  UNL1        0.0738
      4 C         140.2903  138.0449  164.2774 C.3     1  UNL1        0.0372
      5 C         138.9873  137.7587  164.9632 C.3     1  UNL1        0.0245
      6 C         138.3467  139.0706  165.3077 C.3     1  UNL1        0.0909
      7 N         139.2540  140.1676  164.8348 N.pl3   1  UNL1       -0.3072
      8 C         140.4551  139.5337  164.1981 C.3     1  UNL1        0.0901
      9 C         141.7581  139.8199  163.5123 C.3     1  UNL1        0.0921
     10 C         139.0039  141.6401  164.9741 C.ar    1  UNL1        0.0575
     11 C         137.9018  142.2910  164.1921 C.ar    1  UNL1        0.0152
     12 C         137.6517  143.7634  164.3315 C.ar    1  UNL1        0.0013
     13 C         138.5038  144.5849  165.2529 C.ar    1  UNL1        0.0008
     14 C         139.6060  143.9340  166.0350 C.ar    1  UNL1        0.0115
     15 C         139.8561  142.4616  165.8956 C.ar    1  UNL1        0.0817
     16 C         140.9582  141.8107  166.6776 C.1     1  UNL1        0.1017
     17 N         142.0603  141.1598  167.4596 N.1     1  UNL1       -0.1908
     18 C         143.8137  138.5236  160.9891 C.3     1  UNL1        0.0294
     19 C         142.9343  137.7328  160.0664 C.3     1  UNL1        0.0666
     20 S         141.8718  138.4258  159.2659 S.3     1  UNL1       -0.0756
     21 C         142.6888  141.5784  159.4741 C.3     1  UNL1        0.1340
     22 N         141.4232  140.9597  159.9893 N.ar    1  UNL1       -0.2872
     23 C         141.0477  139.5106  159.8936 C.ar    1  UNL1        0.1933
     24 N         139.7033  139.3368  160.5358 N.ar    1  UNL1       -0.1221
     25 N         139.2480  140.6784  161.0284 N.ar    1  UNL1       -0.1266
     26 C         140.3109  141.6815  160.6907 C.ar    1  UNL1        0.1862
     27 C         140.2689  143.1487  161.0000 C.ar    1  UNL1        0.1362
     28 C         139.7518  144.1163  159.9772 C.ar    1  UNL1        0.1211
     29 N         139.7098  145.5835  160.2865 N.ar    1  UNL1       -0.2390
     30 C         140.1850  146.0829  161.6188 C.ar    1  UNL1        0.1195
     31 C         140.7021  145.1153  162.6416 C.ar    1  UNL1        0.1196
     32 N         140.7441  143.6481  162.3322 N.ar    1  UNL1       -0.2375
@<TRIPOS>BOND
     1    21    22    1
     2    22    23   ar
     3    23    20    1
     4    20    19    1
     5    19    18    1
     6    18     1    1
     7     1     2    1
     8     2     3    1
     9     3     4    1
    10     4     5    1
    11     5     6    1
    12     6     7    1
    13     7    10    1
    14    10    11   ar
    15    11    12   ar
    16    12    13   ar
    17    13    14   ar
    18    14    15   ar
    19    15    16    1
    20    16    17    3
    21     7     8    1
    22     8     9    1
    23    23    24   ar
    24    24    25   ar
    25    25    26   ar
    26    26    27    1
    27    27    28   ar
    28    28    29   ar
    29    29    30   ar
    30    30    31   ar
    31    31    32   ar
    32    26    22   ar
    33    32    27   ar
    34     9     2    1
    35     8     4    1
    36    15    10   ar
