@<TRIPOS>MOLECULE
*****
 25 28 0 0 0
SMALL
GASTEIGER

@<TRIPOS>ATOM
      1 C         138.8231  137.6047  163.4588 C.3     1  UNL1        0.0992
      2 C         139.4222  138.1517  160.9906 C.3     1  UNL1        0.0902
      3 N         139.8356  137.6853  162.3549 N.3     1  UNL1       -0.2639
      4 C         141.2616  137.2995  162.6156 C.3     1  UNL1        0.0994
      5 C         142.3501  138.3243  162.4939 C.ar    1  UNL1       -0.0062
      6 C         142.9971  138.5769  161.1644 C.ar    1  UNL1        0.0002
      7 C         144.0856  139.6018  161.0427 C.ar    1  UNL1        0.0363
      8 C         144.5271  140.3740  162.2504 C.ar    1  UNL1        0.1346
      9 C         143.8800  140.1214  163.5800 C.ar    1  UNL1        0.0153
     10 C         142.7915  139.0966  163.7016 C.ar    1  UNL1       -0.0041
     11 C         144.5202  141.0301  164.5871 C.3     1  UNL1        0.0767
     12 C         145.5629  141.8443  163.8801 C.3     1  UNL1        0.2102
     13 O         145.5672  141.4388  162.4360 O.3     1  UNL1       -0.4754
     14 C         139.1713  138.0944  164.8331 C.2     1  UNL1       -0.0088
     15 C         139.6059  139.5157  165.0351 C.2     1  UNL1       -0.0032
     16 C         139.9541  140.0055  166.4095 C.ar    1  UNL1       -0.0003
     17 C         139.0405  139.7148  167.5631 C.ar    1  UNL1       -0.0000
     18 C         139.3886  140.2046  168.9374 C.ar    1  UNL1       -0.0000
     19 C         140.6505  140.9850  169.1583 C.ar    1  UNL1       -0.0000
     20 C         140.9986  141.4747  170.5326 C.ar    1  UNL1        0.0000
     21 C         142.2604  142.2552  170.7534 C.ar    1  UNL1        0.0000
     22 C         143.1740  142.5458  169.5998 C.ar    1  UNL1        0.0000
     23 C         142.8259  142.0561  168.2255 C.ar    1  UNL1       -0.0000
     24 C         141.5641  141.2757  168.0047 C.ar    1  UNL1       -0.0000
     25 C         141.2159  140.7859  166.6303 C.ar    1  UNL1       -0.0000
@<TRIPOS>BOND
     1     2     3    1
     2     3     1    1
     3     1    14    1
     4    14    15    2
     5    15    16    1
     6    16    17   ar
     7    17    18   ar
     8    18    19   ar
     9    19    20   ar
    10    20    21   ar
    11    21    22   ar
    12    22    23   ar
    13    23    24   ar
    14    24    25   ar
    15     3     4    1
    16     4     5    1
    17     5     6   ar
    18     6     7   ar
    19     7     8   ar
    20     8     9   ar
    21     9    10   ar
    22     9    11    1
    23    11    12    1
    24    12    13    1
    25    25    16   ar
    26    10     5   ar
    27    24    19   ar
    28    13     8    1
@<TRIPOS>MOLECULE
*****
 25 28 0 0 0
SMALL
GASTEIGER

@<TRIPOS>ATOM
      1 C         138.9825  144.7515  163.4060 C.3     1  UNL1        0.0992
      2 C         139.5021  146.3717  161.4426 C.3     1  UNL1        0.0902
      3 N         139.9509  145.6228  162.6622 N.3     1  UNL1       -0.2639
      4 C         141.3681  145.7450  163.1382 C.3     1  UNL1        0.0994
      5 C         142.3455  144.6378  162.8759 C.ar    1  UNL1       -0.0062
      6 C         142.4435  144.0326  161.5070 C.ar    1  UNL1        0.0002
      7 C         143.4210  142.9254  161.2447 C.ar    1  UNL1        0.0363
      8 C         144.3003  142.4234  162.3514 C.ar    1  UNL1        0.1346
      9 C         144.2022  143.0287  163.7204 C.ar    1  UNL1        0.0153
     10 C         143.2249  144.1359  163.9826 C.ar    1  UNL1       -0.0041
     11 C         145.1915  142.3321  164.6070 C.3     1  UNL1        0.0767
     12 C         145.9009  141.2964  163.7860 C.3     1  UNL1        0.2102
     13 O         145.3501  141.3528  162.3920 O.3     1  UNL1       -0.4754
     14 C         139.4178  144.0411  164.6533 C.2     1  UNL1       -0.0088
     15 C         139.7222  142.5729  164.6126 C.2     1  UNL1       -0.0032
     16 C         140.1576  141.8623  165.8598 C.ar    1  UNL1       -0.0003
     17 C         139.4170  140.6442  166.3264 C.ar    1  UNL1       -0.0000
     18 C         139.8523  139.9336  167.5736 C.ar    1  UNL1       -0.0000
     19 C         141.0283  140.4412  168.3543 C.ar    1  UNL1       -0.0000
     20 C         141.4637  139.7306  169.6015 C.ar    1  UNL1        0.0000
     21 C         142.6396  140.2382  170.3821 C.ar    1  UNL1        0.0000
     22 C         143.3802  141.4563  169.9156 C.ar    1  UNL1        0.0000
     23 C         142.9449  142.1669  168.6684 C.ar    1  UNL1       -0.0000
     24 C         141.7689  141.6593  167.8878 C.ar    1  UNL1       -0.0000
     25 C         141.3335  142.3699  166.6405 C.ar    1  UNL1       -0.0000
@<TRIPOS>BOND
     1     2     3    1
     2     3     1    1
     3     1    14    1
     4    14    15    2
     5    15    16    1
     6    16    17   ar
     7    17    18   ar
     8    18    19   ar
     9    19    20   ar
    10    20    21   ar
    11    21    22   ar
    12    22    23   ar
    13    23    24   ar
    14    24    25   ar
    15     3     4    1
    16     4     5    1
    17     5     6   ar
    18     6     7   ar
    19     7     8   ar
    20     8     9   ar
    21     9    10   ar
    22     9    11    1
    23    11    12    1
    24    12    13    1
    25    25    16   ar
    26    10     5   ar
    27    24    19   ar
    28    13     8    1
@<TRIPOS>MOLECULE
*****
 25 28 0 0 0
SMALL
GASTEIGER

@<TRIPOS>ATOM
      1 C         138.8868  144.9682  163.4053 C.3     1  UNL1        0.0992
      2 C         139.7382  144.3502  161.0298 C.3     1  UNL1        0.0902
      3 N         138.7895  144.1238  162.1693 N.3     1  UNL1       -0.2639
      4 C         137.7435  143.0530  162.0730 C.3     1  UNL1        0.0994
      5 C         138.0311  141.6749  162.5907 C.ar    1  UNL1       -0.0062
      6 C         138.4438  140.5885  161.6424 C.ar    1  UNL1        0.0002
      7 C         138.7314  139.2103  162.1601 C.ar    1  UNL1        0.0363
      8 C         138.6063  138.9186  163.6261 C.ar    1  UNL1        0.1346
      9 C         138.1936  140.0051  164.5744 C.ar    1  UNL1        0.0153
     10 C         137.9060  141.3832  164.0567 C.ar    1  UNL1       -0.0041
     11 C         138.1553  139.4239  165.9567 C.3     1  UNL1        0.0767
     12 C         138.5443  137.9782  165.8627 C.3     1  UNL1        0.2102
     13 O         138.8231  137.6660  164.4223 O.3     1  UNL1       -0.4754
     14 C         139.4688  144.3934  164.6625 C.2     1  UNL1       -0.0088
     15 C         140.6589  143.4832  164.5901 C.2     1  UNL1       -0.0032
     16 C         141.2411  142.9082  165.8474 C.ar    1  UNL1       -0.0003
     17 C         142.7224  142.7023  165.9621 C.ar    1  UNL1       -0.0000
     18 C         143.3046  142.1274  167.2192 C.ar    1  UNL1       -0.0000
     19 C         142.4054  141.7584  168.3618 C.ar    1  UNL1       -0.0000
     20 C         142.9876  141.1835  169.6189 C.ar    1  UNL1        0.0000
     21 C         142.0884  140.8145  170.7614 C.ar    1  UNL1        0.0000
     22 C         140.6070  141.0204  170.6467 C.ar    1  UNL1        0.0000
     23 C         140.0248  141.5953  169.3895 C.ar    1  UNL1       -0.0000
     24 C         140.9240  141.9643  168.2471 C.ar    1  UNL1       -0.0000
     25 C         140.3419  142.5392  166.9898 C.ar    1  UNL1       -0.0000
@<TRIPOS>BOND
     1     2     3    1
     2     3     1    1
     3     1    14    1
     4    14    15    2
     5    15    16    1
     6    16    17   ar
     7    17    18   ar
     8    18    19   ar
     9    19    20   ar
    10    20    21   ar
    11    21    22   ar
    12    22    23   ar
    13    23    24   ar
    14    24    25   ar
    15     3     4    1
    16     4     5    1
    17     5     6   ar
    18     6     7   ar
    19     7     8   ar
    20     8     9   ar
    21     9    10   ar
    22     9    11    1
    23    11    12    1
    24    12    13    1
    25    25    16   ar
    26    10     5   ar
    27    24    19   ar
    28    13     8    1
@<TRIPOS>MOLECULE
*****
 25 28 0 0 0
SMALL
GASTEIGER

@<TRIPOS>ATOM
      1 C         138.7409  138.2241  163.0512 C.3     1  UNL1        0.0992
      2 C         139.3159  138.2564  160.5177 C.3     1  UNL1        0.0902
      3 N         138.5371  138.7972  161.6800 N.3     1  UNL1       -0.2639
      4 C         137.5543  139.9110  161.4711 C.3     1  UNL1        0.0994
      5 C         137.9286  141.3185  161.8301 C.ar    1  UNL1       -0.0062
      6 C         137.3275  141.9688  163.0407 C.ar    1  UNL1        0.0002
      7 C         137.7018  143.3764  163.3997 C.ar    1  UNL1        0.0363
      8 C         138.6771  144.1336  162.5479 C.ar    1  UNL1        0.1346
      9 C         139.2781  143.4832  161.3372 C.ar    1  UNL1        0.0153
     10 C         138.9039  142.0757  160.9783 C.ar    1  UNL1       -0.0041
     11 C         140.2049  144.4708  160.6925 C.3     1  UNL1        0.0767
     12 C         140.1766  145.7316  161.5047 C.3     1  UNL1        0.2102
     13 O         139.2324  145.5231  162.6514 O.3     1  UNL1       -0.4754
     14 C         139.4178  139.0402  164.1121 C.2     1  UNL1       -0.0088
     15 C         138.6218  139.5860  165.2603 C.2     1  UNL1       -0.0032
     16 C         139.2986  140.4022  166.3214 C.ar    1  UNL1       -0.0003
     17 C         139.8191  141.7710  165.9967 C.ar    1  UNL1       -0.0000
     18 C         140.4960  142.5872  167.0576 C.ar    1  UNL1       -0.0000
     19 C         140.6523  142.0347  168.4434 C.ar    1  UNL1       -0.0000
     20 C         141.3291  142.8509  169.5044 C.ar    1  UNL1        0.0000
     21 C         141.4853  142.2983  170.8901 C.ar    1  UNL1        0.0000
     22 C         140.9648  140.9295  171.2148 C.ar    1  UNL1        0.0000
     23 C         140.2880  140.1133  170.1538 C.ar    1  UNL1       -0.0000
     24 C         140.1317  140.6659  168.7681 C.ar    1  UNL1       -0.0000
     25 C         139.4549  139.8497  167.7071 C.ar    1  UNL1       -0.0000
@<TRIPOS>BOND
     1     2     3    1
     2     3     1    1
     3     1    14    1
     4    14    15    2
     5    15    16    1
     6    16    17   ar
     7    17    18   ar
     8    18    19   ar
     9    19    20   ar
    10    20    21   ar
    11    21    22   ar
    12    22    23   ar
    13    23    24   ar
    14    24    25   ar
    15     3     4    1
    16     4     5    1
    17     5     6   ar
    18     6     7   ar
    19     7     8   ar
    20     8     9   ar
    21     9    10   ar
    22     9    11    1
    23    11    12    1
    24    12    13    1
    25    25    16   ar
    26    10     5   ar
    27    24    19   ar
    28    13     8    1
@<TRIPOS>MOLECULE
*****
 25 28 0 0 0
SMALL
GASTEIGER

@<TRIPOS>ATOM
      1 C         143.7570  138.3364  162.1140 C.3     1  UNL1        0.0992
      2 C         143.2626  138.9762  159.6449 C.3     1  UNL1        0.0902
      3 N         142.7986  138.4337  160.9641 N.3     1  UNL1       -0.2639
      4 C         141.3763  137.9884  161.1336 C.3     1  UNL1        0.0994
      5 C         140.5584  138.5099  162.2777 C.ar    1  UNL1       -0.0062
      6 C         140.2461  139.9741  162.3703 C.ar    1  UNL1        0.0002
      7 C         139.4282  140.4957  163.5144 C.ar    1  UNL1        0.0363
      8 C         138.9226  139.5530  164.5660 C.ar    1  UNL1        0.1346
      9 C         139.2349  138.0887  164.4733 C.ar    1  UNL1        0.0153
     10 C         140.0528  137.5672  163.3292 C.ar    1  UNL1       -0.0041
     11 C         138.6047  137.4050  165.6503 C.3     1  UNL1        0.0767
     12 C         137.9029  138.4467  166.4704 C.3     1  UNL1        0.2102
     13 O         138.0993  139.7742  165.8002 O.3     1  UNL1       -0.4754
     14 C         143.6360  139.2806  163.2732 C.2     1  UNL1       -0.0088
     15 C         143.1529  138.7790  164.6017 C.2     1  UNL1       -0.0032
     16 C         143.0319  139.7232  165.7610 C.ar    1  UNL1       -0.0003
     17 C         143.2000  141.1984  165.5475 C.ar    1  UNL1       -0.0000
     18 C         143.0789  142.1426  166.7067 C.ar    1  UNL1       -0.0000
     19 C         142.7898  141.6116  168.0795 C.ar    1  UNL1       -0.0000
     20 C         142.6687  142.5558  169.2387 C.ar    1  UNL1        0.0000
     21 C         142.3796  142.0248  170.6114 C.ar    1  UNL1        0.0000
     22 C         142.2115  140.5496  170.8249 C.ar    1  UNL1        0.0000
     23 C         142.3325  139.6054  169.6657 C.ar    1  UNL1       -0.0000
     24 C         142.6217  140.1364  168.2930 C.ar    1  UNL1       -0.0000
     25 C         142.7427  139.1922  167.1337 C.ar    1  UNL1       -0.0000
@<TRIPOS>BOND
     1     2     3    1
     2     3     1    1
     3     1    14    1
     4    14    15    2
     5    15    16    1
     6    16    17   ar
     7    17    18   ar
     8    18    19   ar
     9    19    20   ar
    10    20    21   ar
    11    21    22   ar
    12    22    23   ar
    13    23    24   ar
    14    24    25   ar
    15     3     4    1
    16     4     5    1
    17     5     6   ar
    18     6     7   ar
    19     7     8   ar
    20     8     9   ar
    21     9    10   ar
    22     9    11    1
    23    11    12    1
    24    12    13    1
    25    25    16   ar
    26    10     5   ar
    27    24    19   ar
    28    13     8    1
@<TRIPOS>MOLECULE
*****
 25 28 0 0 0
SMALL
GASTEIGER

@<TRIPOS>ATOM
      1 C         138.1294  144.1356  163.2304 C.3     1  UNL1        0.0992
      2 C         138.3035  142.8572  160.9753 C.3     1  UNL1        0.0902
      3 N         138.8502  143.8643  161.9431 N.3     1  UNL1       -0.2639
      4 C         140.1177  144.6001  161.6239 C.3     1  UNL1        0.0994
      5 C         141.4003  144.2121  162.2979 C.ar    1  UNL1       -0.0062
      6 C         141.9378  145.0450  163.4236 C.ar    1  UNL1        0.0002
      7 C         143.2204  144.6570  164.0977 C.ar    1  UNL1        0.0363
      8 C         143.9656  143.4361  163.6459 C.ar    1  UNL1        0.1346
      9 C         143.4281  142.6032  162.5201 C.ar    1  UNL1        0.0153
     10 C         142.1455  142.9912  161.8461 C.ar    1  UNL1       -0.0041
     11 C         144.3755  141.4624  162.2943 C.3     1  UNL1        0.0767
     12 C         145.4985  141.5902  163.2805 C.3     1  UNL1        0.2102
     13 O         145.2451  142.8101  164.1158 O.3     1  UNL1       -0.4754
     14 C         138.6422  143.5536  164.5142 C.2     1  UNL1       -0.0088
     15 C         139.4882  142.3152  164.4911 C.2     1  UNL1       -0.0032
     16 C         140.0011  141.7331  165.7750 C.ar    1  UNL1       -0.0003
     17 C         139.3042  140.5599  166.3978 C.ar    1  UNL1       -0.0000
     18 C         139.8170  139.9779  167.6816 C.ar    1  UNL1       -0.0000
     19 C         141.0268  140.5691  168.3426 C.ar    1  UNL1       -0.0000
     20 C         141.5397  139.9870  169.6264 C.ar    1  UNL1        0.0000
     21 C         142.7494  140.5782  170.2874 C.ar    1  UNL1        0.0000
     22 C         143.4463  141.7514  169.6646 C.ar    1  UNL1        0.0000
     23 C         142.9335  142.3334  168.3808 C.ar    1  UNL1       -0.0000
     24 C         141.7237  141.7423  167.7198 C.ar    1  UNL1       -0.0000
     25 C         141.2108  142.3243  166.4360 C.ar    1  UNL1       -0.0000
@<TRIPOS>BOND
     1     2     3    1
     2     3     1    1
     3     1    14    1
     4    14    15    2
     5    15    16    1
     6    16    17   ar
     7    17    18   ar
     8    18    19   ar
     9    19    20   ar
    10    20    21   ar
    11    21    22   ar
    12    22    23   ar
    13    23    24   ar
    14    24    25   ar
    15     3     4    1
    16     4     5    1
    17     5     6   ar
    18     6     7   ar
    19     7     8   ar
    20     8     9   ar
    21     9    10   ar
    22     9    11    1
    23    11    12    1
    24    12    13    1
    25    25    16   ar
    26    10     5   ar
    27    24    19   ar
    28    13     8    1
@<TRIPOS>MOLECULE
*****
 25 28 0 0 0
SMALL
GASTEIGER

@<TRIPOS>ATOM
      1 C         137.7567  144.0366  163.0784 C.3     1  UNL1        0.0992
      2 C         139.7152  144.6812  161.4977 C.3     1  UNL1        0.0902
      3 N         138.5811  143.7667  161.8547 N.3     1  UNL1       -0.2639
      4 C         138.2714  142.5823  160.9880 C.3     1  UNL1        0.0994
      5 C         138.6634  141.2045  161.4328 C.ar    1  UNL1       -0.0062
      6 C         137.6479  140.1006  161.4375 C.ar    1  UNL1        0.0002
      7 C         138.0399  138.7227  161.8823 C.ar    1  UNL1        0.0363
      8 C         139.4475  138.4488  162.3225 C.ar    1  UNL1        0.1346
      9 C         140.4630  139.5528  162.3178 C.ar    1  UNL1        0.0153
     10 C         140.0710  140.9306  161.8730 C.ar    1  UNL1       -0.0041
     11 C         141.7649  138.9869  162.8024 C.3     1  UNL1        0.0767
     12 C         141.5541  137.5333  163.1065 C.3     1  UNL1        0.2102
     13 O         140.1218  137.2007  162.8099 O.3     1  UNL1       -0.4754
     14 C         138.0438  143.3007  164.3535 C.2     1  UNL1       -0.0088
     15 C         139.4521  142.9137  164.6952 C.2     1  UNL1       -0.0032
     16 C         139.7393  142.1777  165.9704 C.ar    1  UNL1       -0.0003
     17 C         139.3811  140.7265  166.0957 C.ar    1  UNL1       -0.0000
     18 C         139.6682  139.9905  167.3707 C.ar    1  UNL1       -0.0000
     19 C         140.3136  140.7057  168.5206 C.ar    1  UNL1       -0.0000
     20 C         140.6007  139.9697  169.7956 C.ar    1  UNL1        0.0000
     21 C         141.2460  140.6849  170.9454 C.ar    1  UNL1        0.0000
     22 C         141.6042  142.1361  170.8201 C.ar    1  UNL1        0.0000
     23 C         141.3171  142.8721  169.5450 C.ar    1  UNL1       -0.0000
     24 C         140.6718  142.1569  168.3953 C.ar    1  UNL1       -0.0000
     25 C         140.3846  142.8929  167.1201 C.ar    1  UNL1       -0.0000
@<TRIPOS>BOND
     1     2     3    1
     2     3     1    1
     3     1    14    1
     4    14    15    2
     5    15    16    1
     6    16    17   ar
     7    17    18   ar
     8    18    19   ar
     9    19    20   ar
    10    20    21   ar
    11    21    22   ar
    12    22    23   ar
    13    23    24   ar
    14    24    25   ar
    15     3     4    1
    16     4     5    1
    17     5     6   ar
    18     6     7   ar
    19     7     8   ar
    20     8     9   ar
    21     9    10   ar
    22     9    11    1
    23    11    12    1
    24    12    13    1
    25    25    16   ar
    26    10     5   ar
    27    24    19   ar
    28    13     8    1
@<TRIPOS>MOLECULE
*****
 25 28 0 0 0
SMALL
GASTEIGER

@<TRIPOS>ATOM
      1 C         140.5853  140.0330  169.4718 C.3     1  UNL1        0.0992
      2 C         140.6320  142.0705  171.0832 C.3     1  UNL1        0.0902
      3 N         141.0988  141.3969  169.8269 N.3     1  UNL1       -0.2639
      4 C         142.0792  142.0872  168.9256 C.3     1  UNL1        0.0994
      5 C         141.6756  142.4724  167.5333 C.ar    1  UNL1       -0.0062
      6 C         142.5730  142.1491  166.3757 C.ar    1  UNL1        0.0002
      7 C         142.1694  142.5343  164.9833 C.ar    1  UNL1        0.0363
      8 C         140.8682  143.2427  164.7485 C.ar    1  UNL1        0.1346
      9 C         139.9707  143.5660  165.9062 C.ar    1  UNL1        0.0153
     10 C         140.3744  143.1808  167.2985 C.ar    1  UNL1       -0.0041
     11 C         138.7573  144.2663  165.3704 C.3     1  UNL1        0.0767
     12 C         138.9048  144.3759  163.8817 C.3     1  UNL1        0.2102
     13 O         140.2094  143.7433  163.4974 O.3     1  UNL1       -0.4754
     14 C         140.3989  139.6529  168.0328 C.2     1  UNL1       -0.0088
     15 C         139.0505  139.7884  167.3899 C.2     1  UNL1       -0.0032
     16 C         138.8641  139.4083  165.9508 C.ar    1  UNL1       -0.0003
     17 C         139.0999  137.9934  165.5122 C.ar    1  UNL1       -0.0000
     18 C         138.9136  137.6133  164.0732 C.ar    1  UNL1       -0.0000
     19 C         138.4913  138.6482  163.0727 C.ar    1  UNL1       -0.0000
     20 C         138.3050  138.2681  161.6337 C.ar    1  UNL1        0.0000
     21 C         137.8828  139.3029  160.6334 C.ar    1  UNL1        0.0000
     22 C         137.6470  140.7179  161.0720 C.ar    1  UNL1        0.0000
     23 C         137.8333  141.0979  162.5110 C.ar    1  UNL1       -0.0000
     24 C         138.2555  140.0631  163.5114 C.ar    1  UNL1       -0.0000
     25 C         138.4419  140.4432  164.9504 C.ar    1  UNL1       -0.0000
@<TRIPOS>BOND
     1     2     3    1
     2     3     1    1
     3     1    14    1
     4    14    15    2
     5    15    16    1
     6    16    17   ar
     7    17    18   ar
     8    18    19   ar
     9    19    20   ar
    10    20    21   ar
    11    21    22   ar
    12    22    23   ar
    13    23    24   ar
    14    24    25   ar
    15     3     4    1
    16     4     5    1
    17     5     6   ar
    18     6     7   ar
    19     7     8   ar
    20     8     9   ar
    21     9    10   ar
    22     9    11    1
    23    11    12    1
    24    12    13    1
    25    25    16   ar
    26    10     5   ar
    27    24    19   ar
    28    13     8    1
@<TRIPOS>MOLECULE
*****
 25 28 0 0 0
SMALL
GASTEIGER

@<TRIPOS>ATOM
      1 C         139.4993  137.5602  163.1857 C.3     1  UNL1        0.0992
      2 C         139.5008  138.0844  160.6411 C.3     1  UNL1        0.0902
      3 N         138.9314  138.3014  162.0117 N.3     1  UNL1       -0.2639
      4 C         137.7942  139.2595  162.2084 C.3     1  UNL1        0.0994
      5 C         138.0694  140.7224  162.3934 C.ar    1  UNL1       -0.0062
      6 C         138.1927  141.6194  161.1975 C.ar    1  UNL1        0.0002
      7 C         138.4679  143.0823  161.3824 C.ar    1  UNL1        0.0363
      8 C         138.6198  143.6482  162.7633 C.ar    1  UNL1        0.1346
      9 C         138.4966  142.7511  163.9592 C.ar    1  UNL1        0.0153
     10 C         138.2214  141.2882  163.7742 C.ar    1  UNL1       -0.0041
     11 C         138.6930  143.5879  165.1885 C.3     1  UNL1        0.0767
     12 C         138.9377  145.0021  164.7524 C.3     1  UNL1        0.2102
     13 O         138.8925  145.0393  163.2535 O.3     1  UNL1       -0.4754
     14 C         140.3598  138.2794  164.1818 C.2     1  UNL1       -0.0088
     15 C         139.7390  138.9066  165.3946 C.2     1  UNL1       -0.0032
     16 C         140.5995  139.6259  166.3908 C.ar    1  UNL1       -0.0003
     17 C         142.0113  139.1763  166.6251 C.ar    1  UNL1       -0.0000
     18 C         142.8718  139.8955  167.6212 C.ar    1  UNL1       -0.0000
     19 C         142.3206  141.0642  168.3830 C.ar    1  UNL1       -0.0000
     20 C         143.1812  141.7834  169.3791 C.ar    1  UNL1        0.0000
     21 C         142.6300  142.9521  170.1409 C.ar    1  UNL1        0.0000
     22 C         141.2182  143.4016  169.9066 C.ar    1  UNL1        0.0000
     23 C         140.3577  142.6824  168.9105 C.ar    1  UNL1       -0.0000
     24 C         140.9089  141.5137  168.1487 C.ar    1  UNL1       -0.0000
     25 C         140.0483  140.7945  167.1526 C.ar    1  UNL1       -0.0000
@<TRIPOS>BOND
     1     2     3    1
     2     3     1    1
     3     1    14    1
     4    14    15    2
     5    15    16    1
     6    16    17   ar
     7    17    18   ar
     8    18    19   ar
     9    19    20   ar
    10    20    21   ar
    11    21    22   ar
    12    22    23   ar
    13    23    24   ar
    14    24    25   ar
    15     3     4    1
    16     4     5    1
    17     5     6   ar
    18     6     7   ar
    19     7     8   ar
    20     8     9   ar
    21     9    10   ar
    22     9    11    1
    23    11    12    1
    24    12    13    1
    25    25    16   ar
    26    10     5   ar
    27    24    19   ar
    28    13     8    1
