@<TRIPOS>MOLECULE
*****
 32 36 0 0 0
SMALL
GASTEIGER

@<TRIPOS>ATOM
      1 O         138.6765  143.7684  155.4288 O.2     1  UNL1       -0.2258
      2 C         139.2515  144.3007  156.7079 C.2     1  UNL1        0.4086
      3 O         139.4379  143.5275  157.9798 O.3     1  UNL1       -0.4398
      4 C         140.0426  144.4485  158.9977 C.3     1  UNL1        0.1561
      5 C         139.7962  143.0579  159.5032 C.3     1  UNL1        0.0425
      6 C         140.1513  142.6996  160.9158 C.3     1  UNL1        0.0160
      7 C         140.7527  143.7318  161.8229 C.3     1  UNL1        0.1122
      8 C         140.9991  145.1223  161.3174 C.3     1  UNL1        0.0160
      9 C         140.6440  145.4807  159.9048 C.3     1  UNL1        0.0425
     10 C         140.2299  145.7909  158.3549 C.3     1  UNL1        0.1414
     11 N         139.7410  145.6995  156.9398 N.am    1  UNL1       -0.2215
     12 C         141.1078  143.3733  163.2355 C.2     1  UNL1        0.3506
     13 N         140.1419  143.1940  164.3690 N.2     1  UNL1       -0.0350
     14 C         140.9282  142.8411  165.5967 C.2     1  UNL1        0.2348
     15 C         140.5098  142.5501  167.0074 C.2     1  UNL1        0.0869
     16 C         141.5433  142.2203  168.0434 C.2     1  UNL1        0.1468
     17 C         142.9952  142.1815  167.6686 C.2     1  UNL1        0.0200
     18 C         143.4136  142.4726  166.2578 C.3     1  UNL1        0.1068
     19 C         142.3802  142.8024  165.2219 C.2     1  UNL1        0.2176
     20 N         142.4911  143.1313  163.7626 N.2     1  UNL1       -0.0389
     21 O         141.1249  141.9293  169.4541 O.2     1  UNL1       -0.4047
     22 C         140.2372  142.8913  170.1868 C.3     1  UNL1        0.5753
     23 F         139.3496  143.8532  170.9194 F       1  UNL1       -0.1328
     24 F         139.2172  141.8076  170.3739 F       1  UNL1       -0.1328
     25 F         141.2572  143.9750  169.9996 F       1  UNL1       -0.1328
     26 C         139.7414  146.8116  155.9333 C.ar    1  UNL1        0.0572
     27 C         138.9942  148.0808  156.2176 C.ar    1  UNL1        0.0173
     28 C         138.9947  149.1929  155.2111 C.ar    1  UNL1        0.0309
     29 C         139.7423  149.0359  153.9202 C.ar    1  UNL1        0.1402
     30 F         139.7428  150.1481  152.9137 F       1  UNL1       -0.2042
     31 C         140.4896  147.7667  153.6359 C.ar    1  UNL1        0.0309
     32 C         140.4891  146.6546  154.6425 C.ar    1  UNL1        0.0173
@<TRIPOS>BOND
     1     1     2    2
     2     2     3    1
     3     3     4    1
     4     4     5    1
     5     5     6    1
     6     6     7    1
     7     7    12    1
     8    12    13    2
     9    13    14    1
    10    14    15    2
    11    15    16    1
    12    16    21    1
    13    21    22    1
    14    22    23    1
    15    22    24    1
    16    22    25    1
    17    16    17    2
    18    17    18    1
    19    18    19    1
    20    19    20    2
    21     7     8    1
    22     8     9    1
    23     4    10    1
    24    10    11    1
    25    11    26    1
    26    26    27   ar
    27    27    28   ar
    28    28    29   ar
    29    29    30    1
    30    29    31   ar
    31    31    32   ar
    32    11     2   am
    33    32    26   ar
    34     9     4    1
    35    20    12    1
    36    19    14    1
@<TRIPOS>MOLECULE
*****
 32 36 0 0 0
SMALL
GASTEIGER

@<TRIPOS>ATOM
      1 O         144.1515  139.2334  156.1362 O.2     1  UNL1       -0.2258
      2 C         143.6409  138.7827  157.4726 C.2     1  UNL1        0.4086
      3 O         143.7468  139.5455  158.7599 O.3     1  UNL1       -0.4398
      4 C         143.1061  138.7243  159.8394 C.3     1  UNL1        0.1561
      5 C         143.6585  140.0347  160.3164 C.3     1  UNL1        0.0425
      6 C         143.5404  140.4167  161.7621 C.3     1  UNL1        0.0160
      7 C         142.8699  139.4883  162.7308 C.3     1  UNL1        0.1122
      8 C         142.3174  138.1779  162.2538 C.3     1  UNL1        0.0160
      9 C         142.4356  137.7958  160.8081 C.3     1  UNL1        0.0425
     10 C         142.6043  137.4539  159.2192 C.3     1  UNL1        0.1414
     11 N         142.9348  137.4900  157.7566 N.am    1  UNL1       -0.2215
     12 C         142.7518  139.8704  164.1765 C.2     1  UNL1        0.3506
     13 N         142.4534  141.2423  164.7044 N.2     1  UNL1       -0.0350
     14 C         142.4286  141.1674  166.2023 C.2     1  UNL1        0.2348
     15 C         142.1848  142.2074  167.2554 C.2     1  UNL1        0.0869
     16 C         142.2240  141.8290  168.7064 C.2     1  UNL1        0.1468
     17 C         142.5071  140.4108  169.1043 C.2     1  UNL1        0.0200
     18 C         142.7508  139.3708  168.0512 C.3     1  UNL1        0.1068
     19 C         142.7116  139.7490  166.6003 C.2     1  UNL1        0.2176
     20 N         142.9113  138.9475  165.3482 N.2     1  UNL1       -0.0389
     21 O         141.9803  142.8690  169.7595 O.2     1  UNL1       -0.4047
     22 C         140.6108  143.0324  170.3494 C.3     1  UNL1        0.5753
     23 F         139.2414  143.1959  170.9392 F       1  UNL1       -0.1328
     24 F         140.2482  143.9804  169.2449 F       1  UNL1       -0.1328
     25 F         140.9734  142.0845  171.4539 F       1  UNL1       -0.1328
     26 C         142.6153  136.4212  156.7539 C.ar    1  UNL1        0.0572
     27 C         143.6088  135.3323  156.4761 C.ar    1  UNL1        0.0173
     28 C         143.2893  134.2634  155.4734 C.ar    1  UNL1        0.0309
     29 C         141.9763  134.2835  154.7484 C.ar    1  UNL1        0.1402
     30 F         141.6568  133.2146  153.7456 F       1  UNL1       -0.2042
     31 C         140.9827  135.3724  155.0262 C.ar    1  UNL1        0.0309
     32 C         141.3023  136.4413  156.0289 C.ar    1  UNL1        0.0173
@<TRIPOS>BOND
     1     1     2    2
     2     2     3    1
     3     3     4    1
     4     4     5    1
     5     5     6    1
     6     6     7    1
     7     7    12    1
     8    12    13    2
     9    13    14    1
    10    14    15    2
    11    15    16    1
    12    16    21    1
    13    21    22    1
    14    22    23    1
    15    22    24    1
    16    22    25    1
    17    16    17    2
    18    17    18    1
    19    18    19    1
    20    19    20    2
    21     7     8    1
    22     8     9    1
    23     4    10    1
    24    10    11    1
    25    11    26    1
    26    26    27   ar
    27    27    28   ar
    28    28    29   ar
    29    29    30    1
    30    29    31   ar
    31    31    32   ar
    32    11     2   am
    33    32    26   ar
    34     9     4    1
    35    20    12    1
    36    19    14    1
@<TRIPOS>MOLECULE
*****
 32 36 0 0 0
SMALL
GASTEIGER

@<TRIPOS>ATOM
      1 O         139.7882  145.1924  159.4615 O.2     1  UNL1       -0.2258
      2 C         140.0064  143.7222  159.6634 C.2     1  UNL1        0.4086
      3 O         140.3875  142.7334  158.6017 O.3     1  UNL1       -0.4398
      4 C         140.4985  141.3827  159.2446 C.3     1  UNL1        0.1561
      5 C         140.7865  141.3832  157.7726 C.3     1  UNL1        0.0425
      6 C         141.1468  140.1033  157.0784 C.3     1  UNL1        0.0160
      7 C         141.2190  138.8228  157.8563 C.3     1  UNL1        0.1122
      8 C         140.9311  138.8222  159.3284 C.3     1  UNL1        0.0160
      9 C         140.5708  140.1022  160.0225 C.3     1  UNL1        0.0425
     10 C         140.1860  141.5367  160.7037 C.3     1  UNL1        0.1414
     11 N         139.8819  142.9826  160.9625 N.am    1  UNL1       -0.2215
     12 C         141.5793  137.5428  157.1620 C.2     1  UNL1        0.3506
     13 N         142.6744  136.5998  157.5639 N.2     1  UNL1       -0.0350
     14 C         142.6796  135.4553  156.5943 C.2     1  UNL1        0.2348
     15 C         143.5375  134.2290  156.4936 C.2     1  UNL1        0.0869
     16 C         143.3035  133.2384  155.3918 C.2     1  UNL1        0.1468
     17 C         142.2117  133.4741  154.3907 C.2     1  UNL1        0.0200
     18 C         141.3537  134.7004  154.4914 C.3     1  UNL1        0.1068
     19 C         141.5877  135.6910  155.5931 C.2     1  UNL1        0.2176
     20 N         140.9077  136.9811  155.9441 N.2     1  UNL1       -0.0389
     21 O         144.1615  132.0121  155.2911 O.2     1  UNL1       -0.4047
     22 C         144.4389  131.1884  156.5137 C.3     1  UNL1        0.5753
     23 F         144.7164  130.3649  157.7362 F       1  UNL1       -0.1328
     24 F         145.8059  131.7977  156.6138 F       1  UNL1       -0.1328
     25 F         143.0719  130.5792  156.4136 F       1  UNL1       -0.1328
     26 C         139.5172  143.5833  162.2876 C.ar    1  UNL1        0.0572
     27 C         138.0910  143.5661  162.7519 C.ar    1  UNL1        0.0173
     28 C         137.7264  144.1668  164.0771 C.ar    1  UNL1        0.0309
     29 C         138.7879  144.7849  164.9380 C.ar    1  UNL1        0.1402
     30 F         138.4232  145.3857  166.2631 F       1  UNL1       -0.2042
     31 C         140.2142  144.8022  164.4736 C.ar    1  UNL1        0.0309
     32 C         140.5788  144.2014  163.1484 C.ar    1  UNL1        0.0173
@<TRIPOS>BOND
     1     1     2    2
     2     2     3    1
     3     3     4    1
     4     4     5    1
     5     5     6    1
     6     6     7    1
     7     7    12    1
     8    12    13    2
     9    13    14    1
    10    14    15    2
    11    15    16    1
    12    16    21    1
    13    21    22    1
    14    22    23    1
    15    22    24    1
    16    22    25    1
    17    16    17    2
    18    17    18    1
    19    18    19    1
    20    19    20    2
    21     7     8    1
    22     8     9    1
    23     4    10    1
    24    10    11    1
    25    11    26    1
    26    26    27   ar
    27    27    28   ar
    28    28    29   ar
    29    29    30    1
    30    29    31   ar
    31    31    32   ar
    32    11     2   am
    33    32    26   ar
    34     9     4    1
    35    20    12    1
    36    19    14    1
@<TRIPOS>MOLECULE
*****
 32 36 0 0 0
SMALL
GASTEIGER

@<TRIPOS>ATOM
      1 O         143.2897  138.8959  168.2349 O.2     1  UNL1       -0.2258
      2 C         142.5443  139.2378  166.9790 C.2     1  UNL1        0.4086
      3 O         142.8029  138.6657  165.6166 O.3     1  UNL1       -0.4398
      4 C         141.8278  139.2862  164.6605 C.3     1  UNL1        0.1561
      5 C         142.7623  138.3001  164.0246 C.3     1  UNL1        0.0425
      6 C         142.6655  138.0151  162.5552 C.3     1  UNL1        0.0160
      7 C         141.6342  138.7162  161.7216 C.3     1  UNL1        0.1122
      8 C         140.6997  139.7023  162.3574 C.3     1  UNL1        0.0160
      9 C         140.7965  139.9873  163.8268 C.3     1  UNL1        0.0425
     10 C         140.9665  140.2419  165.4319 C.3     1  UNL1        0.1414
     11 N         141.4093  140.2119  166.8647 N.am    1  UNL1       -0.2215
     12 C         141.5374  138.4311  160.2520 C.2     1  UNL1        0.3506
     13 N         142.6420  137.9122  159.3799 N.2     1  UNL1       -0.0350
     14 C         142.1063  137.7753  157.9856 C.2     1  UNL1        0.2348
     15 C         142.7403  137.3113  156.7078 C.2     1  UNL1        0.0869
     16 C         141.9385  137.2816  155.4403 C.2     1  UNL1        0.1468
     17 C         140.5028  137.7159  155.4507 C.2     1  UNL1        0.0200
     18 C         139.8688  138.1799  156.7285 C.3     1  UNL1        0.1068
     19 C         140.6705  138.2096  157.9959 C.2     1  UNL1        0.2176
     20 N         140.3190  138.6149  159.3966 N.2     1  UNL1       -0.0389
     21 O         142.5725  136.8176  154.1625 O.2     1  UNL1       -0.4047
     22 C         142.3040  135.4330  153.6517 C.3     1  UNL1        0.5753
     23 F         142.0355  134.0486  153.1408 F       1  UNL1       -0.1328
     24 F         141.2456  135.9756  152.7377 F       1  UNL1       -0.1328
     25 F         143.3624  134.8905  154.5656 F       1  UNL1       -0.1328
     26 C         140.8205  141.0151  167.9864 C.ar    1  UNL1        0.0572
     27 C         141.1654  142.4678  168.1302 C.ar    1  UNL1        0.0173
     28 C         140.5766  143.2709  169.2519 C.ar    1  UNL1        0.0309
     29 C         139.6429  142.6214  170.2298 C.ar    1  UNL1        0.1402
     30 F         139.0541  143.4246  171.3516 F       1  UNL1       -0.2042
     31 C         139.2980  141.1687  170.0861 C.ar    1  UNL1        0.0309
     32 C         139.8868  140.3656  168.9643 C.ar    1  UNL1        0.0173
@<TRIPOS>BOND
     1     1     2    2
     2     2     3    1
     3     3     4    1
     4     4     5    1
     5     5     6    1
     6     6     7    1
     7     7    12    1
     8    12    13    2
     9    13    14    1
    10    14    15    2
    11    15    16    1
    12    16    21    1
    13    21    22    1
    14    22    23    1
    15    22    24    1
    16    22    25    1
    17    16    17    2
    18    17    18    1
    19    18    19    1
    20    19    20    2
    21     7     8    1
    22     8     9    1
    23     4    10    1
    24    10    11    1
    25    11    26    1
    26    26    27   ar
    27    27    28   ar
    28    28    29   ar
    29    29    30    1
    30    29    31   ar
    31    31    32   ar
    32    11     2   am
    33    32    26   ar
    34     9     4    1
    35    20    12    1
    36    19    14    1
@<TRIPOS>MOLECULE
*****
 32 36 0 0 0
SMALL
GASTEIGER

@<TRIPOS>ATOM
      1 O         138.9391  139.5277  168.4837 O.2     1  UNL1       -0.2258
      2 C         139.7225  139.7703  167.2277 C.2     1  UNL1        0.4086
      3 O         139.4580  139.1468  165.8893 O.3     1  UNL1       -0.4398
      4 C         140.4800  139.6702  164.9240 C.3     1  UNL1        0.1561
      5 C         139.5070  138.7030  164.3175 C.3     1  UNL1        0.0425
      6 C         139.6141  138.3427  162.8654 C.3     1  UNL1        0.0160
      7 C         140.6942  138.9495  162.0198 C.3     1  UNL1        0.1122
      8 C         141.6672  139.9167  162.6262 C.3     1  UNL1        0.0160
      9 C         141.5601  140.2770  164.0783 C.3     1  UNL1        0.0425
     10 C         141.3760  140.6172  165.6659 C.3     1  UNL1        0.1414
     11 N         140.9079  140.6791  167.0896 N.am    1  UNL1       -0.2215
     12 C         140.8012  138.5892  160.5676 C.2     1  UNL1        0.3506
     13 N         142.0497  138.1605  159.8553 N.2     1  UNL1       -0.0350
     14 C         141.6987  137.9007  158.4203 C.2     1  UNL1        0.2348
     15 C         142.5241  137.4546  157.2500 C.2     1  UNL1        0.0869
     16 C         141.8840  137.2765  155.9051 C.2     1  UNL1        0.1468
     17 C         140.4186  137.5446  155.7306 C.2     1  UNL1        0.0200
     18 C         139.5931  137.9907  156.9009 C.3     1  UNL1        0.1068
     19 C         140.2331  138.1687  158.2457 C.2     1  UNL1        0.2176
     20 N         139.6785  138.5942  159.5728 N.2     1  UNL1       -0.0389
     21 O         142.7095  136.8304  154.7347 O.2     1  UNL1       -0.4047
     22 C         142.8376  135.3692  154.4209 C.3     1  UNL1        0.5753
     23 F         142.9658  133.9081  154.1069 F       1  UNL1       -0.1328
     24 F         141.6380  135.4565  153.5247 F       1  UNL1       -0.1328
     25 F         144.0373  135.2819  155.3170 F       1  UNL1       -0.1328
     26 C         141.5180  141.5047  168.1832 C.ar    1  UNL1        0.0572
     27 C         142.9570  141.3075  168.5580 C.ar    1  UNL1        0.0173
     28 C         143.5671  142.1332  169.6516 C.ar    1  UNL1        0.0309
     29 C         142.7382  143.1560  170.3705 C.ar    1  UNL1        0.1402
     30 F         143.3484  143.9817  171.4641 F       1  UNL1       -0.2042
     31 C         141.2992  143.3533  169.9957 C.ar    1  UNL1        0.0309
     32 C         140.6892  142.5275  168.9021 C.ar    1  UNL1        0.0173
@<TRIPOS>BOND
     1     1     2    2
     2     2     3    1
     3     3     4    1
     4     4     5    1
     5     5     6    1
     6     6     7    1
     7     7    12    1
     8    12    13    2
     9    13    14    1
    10    14    15    2
    11    15    16    1
    12    16    21    1
    13    21    22    1
    14    22    23    1
    15    22    24    1
    16    22    25    1
    17    16    17    2
    18    17    18    1
    19    18    19    1
    20    19    20    2
    21     7     8    1
    22     8     9    1
    23     4    10    1
    24    10    11    1
    25    11    26    1
    26    26    27   ar
    27    27    28   ar
    28    28    29   ar
    29    29    30    1
    30    29    31   ar
    31    31    32   ar
    32    11     2   am
    33    32    26   ar
    34     9     4    1
    35    20    12    1
    36    19    14    1
@<TRIPOS>MOLECULE
*****
 32 36 0 0 0
SMALL
GASTEIGER

@<TRIPOS>ATOM
      1 O         138.8477  139.5063  168.5881 O.2     1  UNL1       -0.2258
      2 C         139.3085  140.0348  167.2621 C.2     1  UNL1        0.4086
      3 O         138.7924  139.6145  165.9178 O.3     1  UNL1       -0.4398
      4 C         139.5313  140.3963  164.8724 C.3     1  UNL1        0.1561
      5 C         138.5157  139.4425  164.3167 C.3     1  UNL1        0.0425
      6 C         138.3168  139.3390  162.8336 C.3     1  UNL1        0.0160
      7 C         139.1335  140.1894  161.9062 C.3     1  UNL1        0.1122
      8 C         140.1490  141.1432  162.4619 C.3     1  UNL1        0.0160
      9 C         140.3479  141.2466  163.9450 C.3     1  UNL1        0.0425
     10 C         140.5041  141.2999  165.5707 C.3     1  UNL1        0.1414
     11 N         140.3664  141.0764  167.0475 N.am    1  UNL1       -0.2215
     12 C         138.9345  140.0858  160.4230 C.2     1  UNL1        0.3506
     13 N         137.9391  140.8601  159.6108 N.2     1  UNL1       -0.0350
     14 C         138.0855  140.4426  158.1775 C.2     1  UNL1        0.2348
     15 C         137.3703  140.8691  156.9298 C.2     1  UNL1        0.0869
     16 C         137.7410  140.2632  155.6086 C.2     1  UNL1        0.1468
     17 C         138.8268  139.2310  155.5350 C.2     1  UNL1        0.0200
     18 C         139.5420  138.8046  156.7827 C.3     1  UNL1        0.1068
     19 C         139.1714  139.4103  158.1039 C.2     1  UNL1        0.2176
     20 N         139.6961  139.1899  159.4917 N.2     1  UNL1       -0.0389
     21 O         137.0258  140.6897  154.3609 O.2     1  UNL1       -0.4047
     22 C         135.5263  140.6952  154.3207 C.3     1  UNL1        0.5753
     23 F         134.0269  140.7007  154.2804 F       1  UNL1       -0.1328
     24 F         135.5205  139.1953  154.3317 F       1  UNL1       -0.1328
     25 F         135.5320  142.1951  154.3097 F       1  UNL1       -0.1328
     26 C         141.1490  141.7724  168.1212 C.ar    1  UNL1        0.0572
     27 C         142.5677  141.3698  168.3958 C.ar    1  UNL1        0.0173
     28 C         143.3504  142.0658  169.4695 C.ar    1  UNL1        0.0309
     29 C         142.7145  143.1644  170.2688 C.ar    1  UNL1        0.1402
     30 F         143.4972  143.8604  171.3425 F       1  UNL1       -0.2042
     31 C         141.2958  143.5670  169.9942 C.ar    1  UNL1        0.0309
     32 C         140.5131  142.8710  168.9204 C.ar    1  UNL1        0.0173
@<TRIPOS>BOND
     1     1     2    2
     2     2     3    1
     3     3     4    1
     4     4     5    1
     5     5     6    1
     6     6     7    1
     7     7    12    1
     8    12    13    2
     9    13    14    1
    10    14    15    2
    11    15    16    1
    12    16    21    1
    13    21    22    1
    14    22    23    1
    15    22    24    1
    16    22    25    1
    17    16    17    2
    18    17    18    1
    19    18    19    1
    20    19    20    2
    21     7     8    1
    22     8     9    1
    23     4    10    1
    24    10    11    1
    25    11    26    1
    26    26    27   ar
    27    27    28   ar
    28    28    29   ar
    29    29    30    1
    30    29    31   ar
    31    31    32   ar
    32    11     2   am
    33    32    26   ar
    34     9     4    1
    35    20    12    1
    36    19    14    1
@<TRIPOS>MOLECULE
*****
 32 36 0 0 0
SMALL
GASTEIGER

@<TRIPOS>ATOM
      1 O         142.9221  144.2354  156.3445 O.2     1  UNL1       -0.2258
      2 C         143.0605  143.3151  157.5209 C.2     1  UNL1        0.4086
      3 O         142.0955  143.1927  158.6629 O.3     1  UNL1       -0.4398
      4 C         142.6266  142.1576  159.6097 C.3     1  UNL1        0.1561
      5 C         141.3260  142.7683  160.0404 C.3     1  UNL1        0.0425
      6 C         140.6778  142.3278  161.3193 C.3     1  UNL1        0.0160
      7 C         141.3302  141.2767  162.1676 C.3     1  UNL1        0.1122
      8 C         142.6308  140.6661  161.7370 C.3     1  UNL1        0.0160
      9 C         143.2790  141.1065  160.4580 C.3     1  UNL1        0.0425
     10 C         143.9199  141.6403  159.0530 C.3     1  UNL1        0.1414
     11 N         144.1880  142.3557  157.7621 N.am    1  UNL1       -0.2215
     12 C         140.6819  140.8363  163.4466 C.2     1  UNL1        0.3506
     13 N         141.1377  141.1861  164.8322 N.2     1  UNL1       -0.0350
     14 C         140.2015  140.5347  165.8065 C.2     1  UNL1        0.2348
     15 C         140.1573  140.5295  167.3058 C.2     1  UNL1        0.0869
     16 C         139.0786  139.7719  168.0217 C.2     1  UNL1        0.1468
     17 C         138.0442  139.0195  167.2382 C.2     1  UNL1        0.0200
     18 C         138.0884  139.0247  165.7389 C.3     1  UNL1        0.1068
     19 C         139.1670  139.7823  165.0230 C.2     1  UNL1        0.2176
     20 N         139.4639  139.9687  163.5646 N.2     1  UNL1       -0.0389
     21 O         139.0344  139.7666  169.5210 O.2     1  UNL1       -0.4047
     22 C         140.0854  140.4954  170.3049 C.3     1  UNL1        0.5753
     23 F         141.1364  141.2241  171.0887 F       1  UNL1       -0.1328
     24 F         140.9332  139.2581  170.3184 F       1  UNL1       -0.1328
     25 F         139.2376  141.7327  170.2914 F       1  UNL1       -0.1328
     26 C         145.3752  142.1481  156.8691 C.ar    1  UNL1        0.0572
     27 C         146.7153  142.6940  157.2641 C.ar    1  UNL1        0.0173
     28 C         147.9025  142.4863  156.3711 C.ar    1  UNL1        0.0309
     29 C         147.7496  141.7328  155.0831 C.ar    1  UNL1        0.1402
     30 F         148.9369  141.5252  154.1901 F       1  UNL1       -0.2042
     31 C         146.4094  141.1869  154.6881 C.ar    1  UNL1        0.0309
     32 C         145.2223  141.3945  155.5812 C.ar    1  UNL1        0.0173
@<TRIPOS>BOND
     1     1     2    2
     2     2     3    1
     3     3     4    1
     4     4     5    1
     5     5     6    1
     6     6     7    1
     7     7    12    1
     8    12    13    2
     9    13    14    1
    10    14    15    2
    11    15    16    1
    12    16    21    1
    13    21    22    1
    14    22    23    1
    15    22    24    1
    16    22    25    1
    17    16    17    2
    18    17    18    1
    19    18    19    1
    20    19    20    2
    21     7     8    1
    22     8     9    1
    23     4    10    1
    24    10    11    1
    25    11    26    1
    26    26    27   ar
    27    27    28   ar
    28    28    29   ar
    29    29    30    1
    30    29    31   ar
    31    31    32   ar
    32    11     2   am
    33    32    26   ar
    34     9     4    1
    35    20    12    1
    36    19    14    1
@<TRIPOS>MOLECULE
*****
 32 36 0 0 0
SMALL
GASTEIGER

@<TRIPOS>ATOM
      1 O         137.7412  138.3169  166.8235 O.2     1  UNL1       -0.2258
      2 C         138.4234  139.2672  165.8846 C.2     1  UNL1        0.4086
      3 O         138.0231  139.5445  164.4658 O.3     1  UNL1       -0.4398
      4 C         138.9779  140.5558  163.9039 C.3     1  UNL1        0.1561
      5 C         137.9217  140.1105  162.9364 C.3     1  UNL1        0.0425
      6 C         137.8915  140.6750  161.5470 C.3     1  UNL1        0.0160
      7 C         138.9175  141.6846  161.1251 C.3     1  UNL1        0.1122
      8 C         139.9737  142.1298  162.0927 C.3     1  UNL1        0.0160
      9 C         140.0039  141.5654  163.4821 C.3     1  UNL1        0.0425
     10 C         139.9683  140.9036  164.9756 C.3     1  UNL1        0.1414
     11 N         139.6256  140.1072  166.1997 N.am    1  UNL1       -0.2215
     12 C         138.8872  142.2490  159.7357 C.2     1  UNL1        0.3506
     13 N         139.6305  143.4621  159.2604 N.2     1  UNL1       -0.0350
     14 C         139.3110  143.6622  157.8085 C.2     1  UNL1        0.2348
     15 C         139.7552  144.6957  156.8163 C.2     1  UNL1        0.0869
     16 C         139.2586  144.6397  155.4019 C.2     1  UNL1        0.1468
     17 C         138.3178  143.5503  154.9799 C.2     1  UNL1        0.0200
     18 C         137.8736  142.5169  155.9722 C.3     1  UNL1        0.1068
     19 C         138.3702  142.5728  157.3865 C.2     1  UNL1        0.2176
     20 N         138.1083  141.6994  158.5775 N.2     1  UNL1       -0.0389
     21 O         139.7027  145.6732  154.4096 O.2     1  UNL1       -0.4047
     22 C         139.5714  147.1314  154.7359 C.3     1  UNL1        0.5753
     23 F         139.4402  148.5896  155.0621 F       1  UNL1       -0.1328
     24 F         141.0427  147.3148  154.5083 F       1  UNL1       -0.1328
     25 F         138.1002  146.9481  154.9634 F       1  UNL1       -0.1328
     26 C         140.3566  140.1443  167.5088 C.ar    1  UNL1        0.0572
     27 C         139.6049  140.4047  168.7805 C.ar    1  UNL1        0.0173
     28 C         140.3360  140.4418  170.0897 C.ar    1  UNL1        0.0309
     29 C         141.8188  140.2185  170.1274 C.ar    1  UNL1        0.1402
     30 F         142.5499  140.2556  171.4366 F       1  UNL1       -0.2042
     31 C         142.5706  139.9582  168.8556 C.ar    1  UNL1        0.0309
     32 C         141.8394  139.9211  167.5464 C.ar    1  UNL1        0.0173
@<TRIPOS>BOND
     1     1     2    2
     2     2     3    1
     3     3     4    1
     4     4     5    1
     5     5     6    1
     6     6     7    1
     7     7    12    1
     8    12    13    2
     9    13    14    1
    10    14    15    2
    11    15    16    1
    12    16    21    1
    13    21    22    1
    14    22    23    1
    15    22    24    1
    16    22    25    1
    17    16    17    2
    18    17    18    1
    19    18    19    1
    20    19    20    2
    21     7     8    1
    22     8     9    1
    23     4    10    1
    24    10    11    1
    25    11    26    1
    26    26    27   ar
    27    27    28   ar
    28    28    29   ar
    29    29    30    1
    30    29    31   ar
    31    31    32   ar
    32    11     2   am
    33    32    26   ar
    34     9     4    1
    35    20    12    1
    36    19    14    1
@<TRIPOS>MOLECULE
*****
 32 36 0 0 0
SMALL
GASTEIGER

@<TRIPOS>ATOM
      1 O         143.2946  138.7901  168.0907 O.2     1  UNL1       -0.2258
      2 C         142.5728  139.1967  166.8402 C.2     1  UNL1        0.4086
      3 O         142.8307  138.6658  165.4611 O.3     1  UNL1       -0.4398
      4 C         141.8837  139.3465  164.5178 C.3     1  UNL1        0.1561
      5 C         142.7977  138.3577  163.8569 C.3     1  UNL1        0.0425
      6 C         142.7093  138.1273  162.3773 C.3     1  UNL1        0.0160
      7 C         141.7070  138.8857  161.5587 C.3     1  UNL1        0.1122
      8 C         140.7930  139.8745  162.2196 C.3     1  UNL1        0.0160
      9 C         140.8814  140.1049  163.6992 C.3     1  UNL1        0.0425
     10 C         141.0405  140.2981  165.3139 C.3     1  UNL1        0.1414
     11 N         141.4664  140.2055  166.7491 N.am    1  UNL1       -0.2215
     12 C         141.6187  138.6553  160.0791 C.2     1  UNL1        0.3506
     13 N         140.4743  139.0478  159.1924 N.2     1  UNL1       -0.0350
     14 C         140.8076  138.6270  157.7918 C.2     1  UNL1        0.2348
     15 C         140.0560  138.7538  156.4999 C.2     1  UNL1        0.0869
     16 C         140.6547  138.2278  155.2291 C.2     1  UNL1        0.1468
     17 C         142.0051  137.5752  155.2502 C.2     1  UNL1        0.0200
     18 C         142.7568  137.4484  156.5420 C.3     1  UNL1        0.1068
     19 C         142.1581  137.9743  157.8128 C.2     1  UNL1        0.2176
     20 N         142.6593  137.9918  159.2265 N.2     1  UNL1       -0.0389
     21 O         139.9031  138.3546  153.9372 O.2     1  UNL1       -0.4047
     22 C         138.4837  137.8780  153.8455 C.3     1  UNL1        0.5753
     23 F         137.0644  137.4016  153.7537 F       1  UNL1       -0.1328
     24 F         138.0016  139.2949  153.9456 F       1  UNL1       -0.1328
     25 F         138.9658  136.4612  153.7453 F       1  UNL1       -0.1328
     26 C         140.8876  140.9848  167.8925 C.ar    1  UNL1        0.0572
     27 C         139.9282  140.3267  168.8393 C.ar    1  UNL1        0.0173
     28 C         139.3494  141.1061  169.9828 C.ar    1  UNL1        0.0309
     29 C         139.7299  142.5436  170.1795 C.ar    1  UNL1        0.1402
     30 F         139.1511  143.3230  171.3230 F       1  UNL1       -0.2042
     31 C         140.6894  143.2018  169.2327 C.ar    1  UNL1        0.0309
     32 C         141.2682  142.4223  168.0893 C.ar    1  UNL1        0.0173
@<TRIPOS>BOND
     1     1     2    2
     2     2     3    1
     3     3     4    1
     4     4     5    1
     5     5     6    1
     6     6     7    1
     7     7    12    1
     8    12    13    2
     9    13    14    1
    10    14    15    2
    11    15    16    1
    12    16    21    1
    13    21    22    1
    14    22    23    1
    15    22    24    1
    16    22    25    1
    17    16    17    2
    18    17    18    1
    19    18    19    1
    20    19    20    2
    21     7     8    1
    22     8     9    1
    23     4    10    1
    24    10    11    1
    25    11    26    1
    26    26    27   ar
    27    27    28   ar
    28    28    29   ar
    29    29    30    1
    30    29    31   ar
    31    31    32   ar
    32    11     2   am
    33    32    26   ar
    34     9     4    1
    35    20    12    1
    36    19    14    1
