@<TRIPOS>MOLECULE
*****
 23 26 0 0 0
SMALL
GASTEIGER

@<TRIPOS>ATOM
      1 C         143.4835  139.7134  163.5757 C.ar    1  UNL1       -0.0207
      2 C         142.7875  141.0375  163.4658 C.ar    1  UNL1       -0.0027
      3 C         142.1775  141.6674  164.6828 C.ar    1  UNL1        0.0188
      4 C         142.2635  140.9732  166.0097 C.ar    1  UNL1        0.0812
      5 N         141.6534  141.6032  167.2267 N.ar    1  UNL1       -0.2456
      6 C         141.7394  140.9089  168.5536 C.ar    1  UNL1        0.0808
      7 C         142.4355  139.5847  168.6634 C.ar    1  UNL1        0.0189
      8 C         143.0455  138.9548  167.4465 C.ar    1  UNL1        0.0030
      9 C         142.9595  139.6490  166.1196 C.ar    1  UNL1        0.0174
     10 C         143.5695  139.0191  164.9026 C.ar    1  UNL1       -0.0027
     11 C         141.1294  141.5388  169.7705 C.2     1  UNL1        0.0425
     12 C         141.5271  141.2759  171.1927 C.2     1  UNL1        0.1209
     13 N         140.6581  142.1168  172.0802 N.2     1  UNL1       -0.1510
     14 N         139.7233  142.8996  171.2064 N.2     1  UNL1       -0.1694
     15 C         140.0146  142.5424  169.7790 C.3     1  UNL1        0.1786
     16 C         144.0935  139.0834  162.3587 C.3     1  UNL1        0.0437
     17 C         143.3703  137.9821  161.6418 C.3     1  UNL1        0.0768
     18 C         140.9372  137.0381  163.6010 C.3     1  UNL1        0.0173
     19 C         140.7858  137.6779  162.2528 C.3     1  UNL1        0.0576
     20 C         139.4895  137.9962  161.5685 C.3     1  UNL1        0.0174
     21 C         139.8067  138.6269  160.2449 C.3     1  UNL1        0.0187
     22 C         141.2992  138.6983  160.1113 C.3     1  UNL1        0.0721
     23 N         141.9042  138.1118  161.3523 N.3     1  UNL1       -0.2737
@<TRIPOS>BOND
     1    19    18    1
     2    19    20    1
     3    20    21    1
     4    21    22    1
     5    22    23    1
     6    23    17    1
     7    17    16    1
     8    16     1    1
     9     1     2   ar
    10     2     3   ar
    11     3     4   ar
    12     4     5   ar
    13     5     6   ar
    14     6    11    1
    15    11    12    2
    16    12    13    1
    17    13    14    2
    18    14    15    1
    19     6     7   ar
    20     7     8   ar
    21     8     9   ar
    22     9    10   ar
    23    23    19    1
    24    10     1   ar
    25     9     4   ar
    26    15    11    1
@<TRIPOS>MOLECULE
*****
 23 26 0 0 0
SMALL
GASTEIGER

@<TRIPOS>ATOM
      1 C         142.3676  138.9408  163.4942 C.ar    1  UNL1       -0.0207
      2 C         141.2808  139.9672  163.3709 C.ar    1  UNL1       -0.0027
      3 C         140.7712  140.6705  164.5938 C.ar    1  UNL1        0.0188
      4 C         141.3484  140.3473  165.9401 C.ar    1  UNL1        0.0812
      5 N         140.8387  141.0506  167.1631 N.ar    1  UNL1       -0.2456
      6 C         141.4159  140.7275  168.5094 C.ar    1  UNL1        0.0808
      7 C         142.5027  139.7009  168.6326 C.ar    1  UNL1        0.0189
      8 C         143.0123  138.9977  167.4097 C.ar    1  UNL1        0.0030
      9 C         142.4352  139.3209  166.0634 C.ar    1  UNL1        0.0174
     10 C         142.9448  138.6176  164.8405 C.ar    1  UNL1       -0.0027
     11 C         140.9063  141.4307  169.7323 C.2     1  UNL1        0.0425
     12 C         141.1312  141.0042  171.1527 C.2     1  UNL1        0.1209
     13 N         140.4462  141.9939  172.0479 N.2     1  UNL1       -0.1510
     14 N         139.7979  143.0320  171.1807 N.2     1  UNL1       -0.1694
     15 C         140.0822  142.6840  169.7496 C.3     1  UNL1        0.1786
     16 C         142.8773  138.2374  162.2712 C.3     1  UNL1        0.0437
     17 C         144.0726  138.7739  161.5409 C.3     1  UNL1        0.0768
     18 C         145.4052  140.9441  163.5815 C.3     1  UNL1        0.0173
     19 C         144.8159  141.2458  162.2356 C.3     1  UNL1        0.0576
     20 C         144.7356  142.5980  161.5913 C.3     1  UNL1        0.0174
     21 C         144.0735  142.4362  160.2550 C.3     1  UNL1        0.0187
     22 C         143.7445  140.9840  160.0735 C.3     1  UNL1        0.0721
     23 N         144.2033  140.2483  161.2976 N.3     1  UNL1       -0.2737
@<TRIPOS>BOND
     1    19    18    1
     2    19    20    1
     3    20    21    1
     4    21    22    1
     5    22    23    1
     6    23    17    1
     7    17    16    1
     8    16     1    1
     9     1     2   ar
    10     2     3   ar
    11     3     4   ar
    12     4     5   ar
    13     5     6   ar
    14     6    11    1
    15    11    12    2
    16    12    13    1
    17    13    14    2
    18    14    15    1
    19     6     7   ar
    20     7     8   ar
    21     8     9   ar
    22     9    10   ar
    23    23    19    1
    24    10     1   ar
    25     9     4   ar
    26    15    11    1
@<TRIPOS>MOLECULE
*****
 23 26 0 0 0
SMALL
GASTEIGER

@<TRIPOS>ATOM
      1 C         139.0267  139.9936  162.9315 C.ar    1  UNL1       -0.0207
      2 C         140.0106  141.1085  163.1287 C.ar    1  UNL1       -0.0027
      3 C         140.3934  141.5344  164.5150 C.ar    1  UNL1        0.0188
      4 C         139.7924  140.8454  165.7042 C.ar    1  UNL1        0.0812
      5 N         140.1752  141.2713  167.0906 N.ar    1  UNL1       -0.2456
      6 C         139.5742  140.5823  168.2797 C.ar    1  UNL1        0.0808
      7 C         138.5903  139.4673  168.0824 C.ar    1  UNL1        0.0189
      8 C         138.2075  139.0415  166.6960 C.ar    1  UNL1        0.0030
      9 C         138.8085  139.7305  165.5069 C.ar    1  UNL1        0.0174
     10 C         138.4257  139.3046  164.1206 C.ar    1  UNL1       -0.0027
     11 C         139.9570  141.0082  169.6660 C.2     1  UNL1        0.0425
     12 C         139.9698  142.4159  170.1840 C.2     1  UNL1        0.1209
     13 N         140.4149  142.3789  171.6160 N.2     1  UNL1       -0.1510
     14 N         140.6773  140.9483  171.9829 N.2     1  UNL1       -0.1694
     15 C         140.3943  140.1012  170.7778 C.3     1  UNL1        0.1786
     16 C         138.6439  139.5677  161.5450 C.3     1  UNL1        0.0437
     17 C         139.3142  138.3845  160.9119 C.3     1  UNL1        0.0768
     18 C         141.2992  137.2610  163.2457 C.3     1  UNL1        0.0173
     19 C         141.7236  137.8036  161.9132 C.3     1  UNL1        0.0576
     20 C         143.1348  137.9249  161.4195 C.3     1  UNL1        0.0174
     21 C         143.0945  138.5165  160.0416 C.3     1  UNL1        0.0187
     22 C         141.6584  138.7606  159.6838 C.3     1  UNL1        0.0721
     23 N         140.8111  138.3200  160.8405 N.3     1  UNL1       -0.2737
@<TRIPOS>BOND
     1    19    18    1
     2    19    20    1
     3    20    21    1
     4    21    22    1
     5    22    23    1
     6    23    17    1
     7    17    16    1
     8    16     1    1
     9     1     2   ar
    10     2     3   ar
    11     3     4   ar
    12     4     5   ar
    13     5     6   ar
    14     6    11    1
    15    11    12    2
    16    12    13    1
    17    13    14    2
    18    14    15    1
    19     6     7   ar
    20     7     8   ar
    21     8     9   ar
    22     9    10   ar
    23    23    19    1
    24    10     1   ar
    25     9     4   ar
    26    15    11    1
@<TRIPOS>MOLECULE
*****
 23 26 0 0 0
SMALL
GASTEIGER

@<TRIPOS>ATOM
      1 C         142.0312  140.3518  166.9331 C.ar    1  UNL1       -0.0207
      2 C         140.6823  140.0279  166.3625 C.ar    1  UNL1       -0.0027
      3 C         140.1244  140.8536  165.2413 C.ar    1  UNL1        0.0188
      4 C         140.9153  142.0031  164.6909 C.ar    1  UNL1        0.0812
      5 N         140.3573  142.8288  163.5697 N.ar    1  UNL1       -0.2456
      6 C         141.1483  143.9783  163.0192 C.ar    1  UNL1        0.0808
      7 C         142.4972  144.3021  163.5899 C.ar    1  UNL1        0.0189
      8 C         143.0551  143.4765  164.7110 C.ar    1  UNL1        0.0030
      9 C         142.2642  142.3270  165.2615 C.ar    1  UNL1        0.0174
     10 C         142.8221  141.5013  166.3826 C.ar    1  UNL1       -0.0027
     11 C         140.5904  144.8040  161.8981 C.2     1  UNL1        0.0425
     12 C         140.6697  144.4751  160.4367 C.2     1  UNL1        0.1209
     13 N         139.9835  145.5713  159.6769 N.2     1  UNL1       -0.1510
     14 N         139.4801  146.5778  160.6687 N.2     1  UNL1       -0.1694
     15 C         139.8551  146.1035  162.0414 C.3     1  UNL1        0.1786
     16 C         142.5891  139.5261  168.0543 C.3     1  UNL1        0.0437
     17 C         142.3383  139.9270  169.4778 C.3     1  UNL1        0.0768
     18 C         139.1377  140.4255  169.8736 C.3     1  UNL1        0.0173
     19 C         140.2104  141.4699  169.9643 C.3     1  UNL1        0.0576
     20 C         140.0004  142.9268  170.2529 C.3     1  UNL1        0.0174
     21 C         141.3419  143.5982  170.2494 C.3     1  UNL1        0.0187
     22 C         142.3810  142.5561  169.9586 C.3     1  UNL1        0.0721
     23 N         141.6816  141.2408  169.7824 N.3     1  UNL1       -0.2737
@<TRIPOS>BOND
     1    19    18    1
     2    19    20    1
     3    20    21    1
     4    21    22    1
     5    22    23    1
     6    23    17    1
     7    17    16    1
     8    16     1    1
     9     1     2   ar
    10     2     3   ar
    11     3     4   ar
    12     4     5   ar
    13     5     6   ar
    14     6    11    1
    15    11    12    2
    16    12    13    1
    17    13    14    2
    18    14    15    1
    19     6     7   ar
    20     7     8   ar
    21     8     9   ar
    22     9    10   ar
    23    23    19    1
    24    10     1   ar
    25     9     4   ar
    26    15    11    1
@<TRIPOS>MOLECULE
*****
 23 26 0 0 0
SMALL
GASTEIGER

@<TRIPOS>ATOM
      1 C         139.3683  137.6162  164.5192 C.ar    1  UNL1       -0.0207
      2 C         140.8481  137.4523  164.7007 C.ar    1  UNL1       -0.0027
      3 C         141.7682  137.5940  163.5245 C.ar    1  UNL1        0.0188
      4 C         141.2084  137.8998  162.1669 C.ar    1  UNL1        0.0812
      5 N         142.1285  138.0415  160.9907 N.ar    1  UNL1       -0.2456
      6 C         141.5687  138.3472  159.6331 C.ar    1  UNL1        0.0808
      7 C         140.0887  138.5112  159.4517 C.ar    1  UNL1        0.0189
      8 C         139.1686  138.3694  160.6278 C.ar    1  UNL1        0.0030
      9 C         139.7285  138.0637  161.9854 C.ar    1  UNL1        0.0174
     10 C         138.8084  137.9219  163.1616 C.ar    1  UNL1       -0.0027
     11 C         142.4887  138.4890  158.4570 C.2     1  UNL1        0.0425
     12 C         143.3203  139.6933  158.1282 C.2     1  UNL1        0.1209
     13 N         144.0843  139.4000  156.8711 N.2     1  UNL1       -0.1510
     14 N         143.7249  138.0143  156.4230 N.2     1  UNL1       -0.1694
     15 C         142.7388  137.4513  157.4031 C.3     1  UNL1        0.1786
     16 C         138.4481  137.4745  165.6954 C.3     1  UNL1        0.0437
     17 C         138.0049  138.6915  166.4519 C.3     1  UNL1        0.0768
     18 C         138.2048  141.2657  164.4562 C.3     1  UNL1        0.0173
     19 C         139.0272  141.0411  165.6904 C.3     1  UNL1        0.0576
     20 C         140.0857  141.9601  166.2239 C.3     1  UNL1        0.0174
     21 C         140.6481  141.3449  167.4711 C.3     1  UNL1        0.0187
     22 C         139.9371  140.0455  167.7082 C.3     1  UNL1        0.0721
     23 N         138.9353  139.8578  166.6077 N.3     1  UNL1       -0.2737
@<TRIPOS>BOND
     1    19    18    1
     2    19    20    1
     3    20    21    1
     4    21    22    1
     5    22    23    1
     6    23    17    1
     7    17    16    1
     8    16     1    1
     9     1     2   ar
    10     2     3   ar
    11     3     4   ar
    12     4     5   ar
    13     5     6   ar
    14     6    11    1
    15    11    12    2
    16    12    13    1
    17    13    14    2
    18    14    15    1
    19     6     7   ar
    20     7     8   ar
    21     8     9   ar
    22     9    10   ar
    23    23    19    1
    24    10     1   ar
    25     9     4   ar
    26    15    11    1
@<TRIPOS>MOLECULE
*****
 23 26 0 0 0
SMALL
GASTEIGER

@<TRIPOS>ATOM
      1 C         138.9742  139.1586  163.1445 C.ar    1  UNL1       -0.0207
      2 C         138.7431  138.0228  164.0966 C.ar    1  UNL1       -0.0027
      3 C         138.9448  138.2256  165.5691 C.ar    1  UNL1        0.0188
      4 C         139.3776  139.5642  166.0894 C.ar    1  UNL1        0.0812
      5 N         139.5793  139.7670  167.5620 N.ar    1  UNL1       -0.2456
      6 C         140.0121  141.1056  168.0823 C.ar    1  UNL1        0.0808
      7 C         140.2433  142.2414  167.1301 C.ar    1  UNL1        0.0189
      8 C         140.0416  142.0386  165.6577 C.ar    1  UNL1        0.0030
      9 C         139.6087  140.7000  165.1373 C.ar    1  UNL1        0.0174
     10 C         139.4070  140.4972  163.6649 C.ar    1  UNL1       -0.0027
     11 C         140.2138  141.3084  169.5548 C.2     1  UNL1        0.0425
     12 C         140.1088  142.6130  170.2876 C.2     1  UNL1        0.1209
     13 N         140.3860  142.3532  171.7387 N.2     1  UNL1       -0.1510
     14 N         140.6624  140.8879  171.9026 N.2     1  UNL1       -0.1694
     15 C         140.5560  140.2423  170.5529 C.3     1  UNL1        0.1786
     16 C         138.7725  138.9558  161.6720 C.3     1  UNL1        0.0437
     17 C         139.9072  138.4706  160.8194 C.3     1  UNL1        0.0768
     18 C         141.6159  141.2287  160.4695 C.3     1  UNL1        0.0173
     19 C         142.1095  139.9596  161.0987 C.3     1  UNL1        0.0576
     20 C         143.4750  139.7355  161.6775 C.3     1  UNL1        0.0174
     21 C         143.5336  138.3292  162.1962 C.3     1  UNL1        0.0187
     22 C         142.2041  137.6842  161.9378 C.3     1  UNL1        0.0721
     23 N         141.3241  138.6919  161.2595 N.3     1  UNL1       -0.2737
@<TRIPOS>BOND
     1    19    18    1
     2    19    20    1
     3    20    21    1
     4    21    22    1
     5    22    23    1
     6    23    17    1
     7    17    16    1
     8    16     1    1
     9     1     2   ar
    10     2     3   ar
    11     3     4   ar
    12     4     5   ar
    13     5     6   ar
    14     6    11    1
    15    11    12    2
    16    12    13    1
    17    13    14    2
    18    14    15    1
    19     6     7   ar
    20     7     8   ar
    21     8     9   ar
    22     9    10   ar
    23    23    19    1
    24    10     1   ar
    25     9     4   ar
    26    15    11    1
@<TRIPOS>MOLECULE
*****
 23 26 0 0 0
SMALL
GASTEIGER

@<TRIPOS>ATOM
      1 C         140.1847  138.3520  163.3059 C.ar    1  UNL1       -0.0207
      2 C         141.5752  138.8518  163.5637 C.ar    1  UNL1       -0.0027
      3 C         141.9251  139.4407  164.8981 C.ar    1  UNL1        0.0188
      4 C         140.8844  139.5299  165.9747 C.ar    1  UNL1        0.0812
      5 N         141.2344  140.1189  167.3091 N.ar    1  UNL1       -0.2456
      6 C         140.1937  140.2081  168.3857 C.ar    1  UNL1        0.0808
      7 C         138.8031  139.7082  168.1279 C.ar    1  UNL1        0.0189
      8 C         138.4532  139.1193  166.7935 C.ar    1  UNL1        0.0030
      9 C         139.4939  139.0301  165.7169 C.ar    1  UNL1        0.0174
     10 C         139.1440  138.4412  164.3825 C.ar    1  UNL1       -0.0027
     11 C         140.5436  140.7970  169.7201 C.2     1  UNL1        0.0425
     12 C         139.8522  141.9514  170.3830 C.2     1  UNL1        0.1209
     13 N         140.5276  142.2028  171.6985 N.2     1  UNL1       -0.1510
     14 N         141.6365  141.2038  171.8486 N.2     1  UNL1       -0.1694
     15 C         141.6464  140.3350  170.6259 C.3     1  UNL1        0.1786
     16 C         139.8347  137.7630  161.9714 C.3     1  UNL1        0.0437
     17 C         139.1936  138.6182  160.9190 C.3     1  UNL1        0.0768
     18 C         141.3558  141.0099  160.4150 C.3     1  UNL1        0.0173
     19 C         139.9619  141.1784  160.9428 C.3     1  UNL1        0.0576
     20 C         139.3171  142.4757  161.3316 C.3     1  UNL1        0.0174
     21 C         137.9247  142.1781  161.8037 C.3     1  UNL1        0.0187
     22 C         137.7090  140.6968  161.7065 C.3     1  UNL1        0.0721
     23 N         138.9681  140.0790  161.1745 N.3     1  UNL1       -0.2737
@<TRIPOS>BOND
     1    19    18    1
     2    19    20    1
     3    20    21    1
     4    21    22    1
     5    22    23    1
     6    23    17    1
     7    17    16    1
     8    16     1    1
     9     1     2   ar
    10     2     3   ar
    11     3     4   ar
    12     4     5   ar
    13     5     6   ar
    14     6    11    1
    15    11    12    2
    16    12    13    1
    17    13    14    2
    18    14    15    1
    19     6     7   ar
    20     7     8   ar
    21     8     9   ar
    22     9    10   ar
    23    23    19    1
    24    10     1   ar
    25     9     4   ar
    26    15    11    1
@<TRIPOS>MOLECULE
*****
 23 26 0 0 0
SMALL
GASTEIGER

@<TRIPOS>ATOM
      1 C         142.1026  139.3899  163.1197 C.ar    1  UNL1       -0.0207
      2 C         142.5635  138.3285  164.0741 C.ar    1  UNL1       -0.0027
      3 C         142.3810  138.5173  165.5509 C.ar    1  UNL1        0.0188
      4 C         141.7375  139.7675  166.0733 C.ar    1  UNL1        0.0812
      5 N         141.5550  139.9562  167.5502 N.ar    1  UNL1       -0.2456
      6 C         140.9115  141.2064  168.0726 C.ar    1  UNL1        0.0808
      7 C         140.4506  142.2679  167.1182 C.ar    1  UNL1        0.0189
      8 C         140.6331  142.0791  165.6414 C.ar    1  UNL1        0.0030
      9 C         141.2766  140.8289  165.1189 C.ar    1  UNL1        0.0174
     10 C         141.4591  140.6401  163.6421 C.ar    1  UNL1       -0.0027
     11 C         140.7290  141.3952  169.5494 C.2     1  UNL1        0.0425
     12 C         140.3402  142.6722  170.2337 C.2     1  UNL1        0.1209
     13 N         140.2742  142.4064  171.7085 N.2     1  UNL1       -0.1510
     14 N         140.6221  140.9650  171.9357 N.2     1  UNL1       -0.1694
     15 C         140.9033  140.3401  170.6013 C.3     1  UNL1        0.1786
     16 C         142.2851  139.2012  161.6428 C.3     1  UNL1        0.0437
     17 C         141.2837  138.4058  160.8589 C.3     1  UNL1        0.0768
     18 C         138.9430  137.6773  163.0130 C.3     1  UNL1        0.0173
     19 C         138.7783  138.5208  161.7837 C.3     1  UNL1        0.0576
     20 C         137.5088  139.1775  161.3286 C.3     1  UNL1        0.0174
     21 C         137.8001  139.9183  160.0571 C.3     1  UNL1        0.0187
     22 C         139.2497  139.7193  159.7265 C.3     1  UNL1        0.0721
     23 N         139.8541  138.8556  160.7935 N.3     1  UNL1       -0.2737
@<TRIPOS>BOND
     1    19    18    1
     2    19    20    1
     3    20    21    1
     4    21    22    1
     5    22    23    1
     6    23    17    1
     7    17    16    1
     8    16     1    1
     9     1     2   ar
    10     2     3   ar
    11     3     4   ar
    12     4     5   ar
    13     5     6   ar
    14     6    11    1
    15    11    12    2
    16    12    13    1
    17    13    14    2
    18    14    15    1
    19     6     7   ar
    20     7     8   ar
    21     8     9   ar
    22     9    10   ar
    23    23    19    1
    24    10     1   ar
    25     9     4   ar
    26    15    11    1
@<TRIPOS>MOLECULE
*****
 23 26 0 0 0
SMALL
GASTEIGER

@<TRIPOS>ATOM
      1 C         140.2701  145.0233  163.2076 C.ar    1  UNL1       -0.0207
      2 C         139.1312  144.6123  164.0930 C.ar    1  UNL1       -0.0027
      3 C         139.3817  143.7166  165.2698 C.ar    1  UNL1        0.0188
      4 C         140.7710  143.2319  165.5612 C.ar    1  UNL1        0.0812
      5 N         141.0214  142.3361  166.7381 N.ar    1  UNL1       -0.2456
      6 C         142.4107  141.8514  167.0295 C.ar    1  UNL1        0.0808
      7 C         143.5496  142.2625  166.1440 C.ar    1  UNL1        0.0189
      8 C         143.2991  143.1582  164.9672 C.ar    1  UNL1        0.0030
      9 C         141.9098  143.6429  164.6758 C.ar    1  UNL1        0.0174
     10 C         141.6594  144.5386  163.4989 C.ar    1  UNL1       -0.0027
     11 C         142.6611  140.9557  168.2063 C.2     1  UNL1        0.0425
     12 C         143.1359  141.3916  169.5608 C.2     1  UNL1        0.1209
     13 N         143.2490  140.1721  170.4269 N.2     1  UNL1       -0.1510
     14 N         142.8441  138.9826  169.6076 N.2     1  UNL1       -0.1694
     15 C         142.4808  139.4669  168.2352 C.3     1  UNL1        0.1786
     16 C         140.0197  145.9191  162.0307 C.3     1  UNL1        0.0437
     17 C         140.0935  145.3662  160.6382 C.3     1  UNL1        0.0768
     18 C         142.6893  143.4814  160.0395 C.3     1  UNL1        0.0173
     19 C         141.2671  143.0162  160.1431 C.3     1  UNL1        0.0576
     20 C         140.7883  141.6029  159.9897 C.3     1  UNL1        0.0174
     21 C         139.2992  141.5958  160.1701 C.3     1  UNL1        0.0187
     22 C         138.8577  143.0048  160.4350 C.3     1  UNL1        0.0721
     23 N         140.0739  143.8825  160.4183 N.3     1  UNL1       -0.2737
@<TRIPOS>BOND
     1    19    18    1
     2    19    20    1
     3    20    21    1
     4    21    22    1
     5    22    23    1
     6    23    17    1
     7    17    16    1
     8    16     1    1
     9     1     2   ar
    10     2     3   ar
    11     3     4   ar
    12     4     5   ar
    13     5     6   ar
    14     6    11    1
    15    11    12    2
    16    12    13    1
    17    13    14    2
    18    14    15    1
    19     6     7   ar
    20     7     8   ar
    21     8     9   ar
    22     9    10   ar
    23    23    19    1
    24    10     1   ar
    25     9     4   ar
    26    15    11    1
