@<TRIPOS>MOLECULE
*****
 28 31 0 0 0
SMALL
GASTEIGER

@<TRIPOS>ATOM
      1 C         139.4728  145.7275  162.2345 C.3     1  UNL1        0.0307
      2 C         139.7074  144.5415  163.1223 C.ar    1  UNL1       -0.0242
      3 C         138.6740  143.4582  163.2154 C.ar    1  UNL1        0.0160
      4 C         138.9086  142.2722  164.1032 C.ar    1  UNL1        0.0980
      5 N         138.0781  141.0579  164.3962 N.ar    1  UNL1       -0.2310
      6 C         138.8328  140.2046  165.3721 C.ar    1  UNL1        0.1204
      7 N         140.1297  140.8916  165.6823 N.ar    1  UNL1       -0.3107
      8 C         140.1765  142.1694  164.8980 C.ar    1  UNL1        0.0785
      9 C         141.2099  143.2526  164.8050 C.ar    1  UNL1        0.0142
     10 C         140.9753  144.4387  163.9171 C.ar    1  UNL1       -0.0243
     11 C         142.0088  145.5220  163.8241 C.3     1  UNL1        0.0307
     12 C         138.3716  138.8944  165.9385 C.3     1  UNL1        0.0613
     13 C         137.6160  138.8616  167.2338 C.3     1  UNL1        0.0083
     14 C         138.6661  137.6170  165.2095 C.3     1  UNL1        0.0339
     15 C         139.4299  137.6489  163.9189 C.ar    1  UNL1       -0.0187
     16 C         138.7131  137.9218  162.6298 C.ar    1  UNL1        0.0164
     17 C         139.4769  137.9537  161.3392 C.ar    1  UNL1        0.0986
     18 N         140.9574  137.7127  161.3377 N.ar    1  UNL1       -0.2423
     19 C         141.6741  137.4398  162.6269 C.ar    1  UNL1        0.0986
     20 C         140.9104  137.4079  163.9174 C.ar    1  UNL1        0.0164
     21 C         141.1931  140.3890  166.6132 C.3     1  UNL1        0.1339
     22 C         141.6639  141.2491  167.7482 C.ar    1  UNL1        0.0005
     23 C         143.1170  141.2707  168.1203 C.ar    1  UNL1       -0.0015
     24 C         143.5879  142.1308  169.2553 C.ar    1  UNL1        0.0111
     25 C         142.6059  142.9694  170.0184 C.ar    1  UNL1        0.0577
     26 CL        143.0768  143.8295  171.1535 Cl      1  UNL1       -0.0822
     27 C         141.1529  142.9479  169.6465 C.ar    1  UNL1        0.0111
     28 C         140.6819  142.0877  168.5113 C.ar    1  UNL1       -0.0015
@<TRIPOS>BOND
     1     1     2    1
     2     2     3   ar
     3     3     4   ar
     4     4     5   ar
     5     5     6   ar
     6     6    12    1
     7    12    13    1
     8    12    14    1
     9    14    15    1
    10    15    16   ar
    11    16    17   ar
    12    17    18   ar
    13    18    19   ar
    14    19    20   ar
    15     6     7   ar
    16     7    21    1
    17    21    22    1
    18    22    23   ar
    19    23    24   ar
    20    24    25   ar
    21    25    26    1
    22    25    27   ar
    23    27    28   ar
    24     7     8   ar
    25     8     9   ar
    26     9    10   ar
    27    10    11    1
    28    10     2   ar
    29     8     4   ar
    30    20    15   ar
    31    28    22   ar
@<TRIPOS>MOLECULE
*****
 28 31 0 0 0
SMALL
GASTEIGER

@<TRIPOS>ATOM
      1 C         138.1793  145.0934  162.4696 C.3     1  UNL1        0.0307
      2 C         139.2275  144.3342  163.2277 C.ar    1  UNL1       -0.0242
      3 C         140.3814  143.7150  162.4962 C.ar    1  UNL1        0.0160
      4 C         141.4296  142.9558  163.2544 C.ar    1  UNL1        0.0980
      5 N         142.6714  142.2421  162.8086 N.ar    1  UNL1       -0.2310
      6 C         143.3332  141.6610  164.0228 C.ar    1  UNL1        0.1204
      7 N         142.5004  142.0155  165.2189 N.ar    1  UNL1       -0.3107
      8 C         141.3239  142.8157  164.7440 C.ar    1  UNL1        0.0785
      9 C         140.1701  143.4349  165.4756 C.ar    1  UNL1        0.0142
     10 C         139.1219  144.1941  164.7174 C.ar    1  UNL1       -0.0243
     11 C         137.9680  144.8133  165.4490 C.3     1  UNL1        0.0307
     12 C         144.6046  140.8652  164.0382 C.3     1  UNL1        0.0613
     13 C         145.9285  141.5647  163.9494 C.3     1  UNL1        0.0083
     14 C         144.5521  139.3697  164.1423 C.3     1  UNL1        0.0339
     15 C         143.3117  138.6325  163.7326 C.ar    1  UNL1       -0.0187
     16 C         142.3841  138.0868  164.7774 C.ar    1  UNL1        0.0164
     17 C         141.1436  137.3495  164.3677 C.ar    1  UNL1        0.0986
     18 N         140.8308  137.1580  162.9132 N.ar    1  UNL1       -0.2423
     19 C         141.7586  137.7037  161.8684 C.ar    1  UNL1        0.0986
     20 C         142.9989  138.4410  162.2781 C.ar    1  UNL1        0.0164
     21 C         142.7928  141.6364  166.6405 C.3     1  UNL1        0.1339
     22 C         141.6684  141.2894  167.5706 C.ar    1  UNL1        0.0005
     23 C         141.4748  142.0695  168.8372 C.ar    1  UNL1       -0.0015
     24 C         140.3504  141.7225  169.7674 C.ar    1  UNL1        0.0111
     25 C         139.4195  140.5955  169.4311 C.ar    1  UNL1        0.0577
     26 CL        138.2951  140.2485  170.3613 Cl      1  UNL1       -0.0822
     27 C         139.6130  139.8154  168.1646 C.ar    1  UNL1        0.0111
     28 C         140.7375  140.1623  167.2344 C.ar    1  UNL1       -0.0015
@<TRIPOS>BOND
     1     1     2    1
     2     2     3   ar
     3     3     4   ar
     4     4     5   ar
     5     5     6   ar
     6     6    12    1
     7    12    13    1
     8    12    14    1
     9    14    15    1
    10    15    16   ar
    11    16    17   ar
    12    17    18   ar
    13    18    19   ar
    14    19    20   ar
    15     6     7   ar
    16     7    21    1
    17    21    22    1
    18    22    23   ar
    19    23    24   ar
    20    24    25   ar
    21    25    26    1
    22    25    27   ar
    23    27    28   ar
    24     7     8   ar
    25     8     9   ar
    26     9    10   ar
    27    10    11    1
    28    10     2   ar
    29     8     4   ar
    30    20    15   ar
    31    28    22   ar
@<TRIPOS>MOLECULE
*****
 28 31 0 0 0
SMALL
GASTEIGER

@<TRIPOS>ATOM
      1 C         140.2589  140.0394  170.7627 C.3     1  UNL1        0.0307
      2 C         140.3547  140.0532  169.2658 C.ar    1  UNL1       -0.0242
      3 C         139.1297  139.8147  168.4337 C.ar    1  UNL1        0.0160
      4 C         139.2255  139.8285  166.9368 C.ar    1  UNL1        0.0980
      5 N         138.1972  139.6271  165.8634 N.ar    1  UNL1       -0.2310
      6 C         138.8825  139.7551  164.5352 C.ar    1  UNL1        0.1204
      7 N         140.3342  140.0356  164.7878 N.ar    1  UNL1       -0.3107
      8 C         140.5462  140.0810  166.2721 C.ar    1  UNL1        0.0785
      9 C         141.7711  140.3196  167.1042 C.ar    1  UNL1        0.0142
     10 C         141.6754  140.3057  168.6011 C.ar    1  UNL1       -0.0243
     11 C         142.9004  140.5443  169.4332 C.3     1  UNL1        0.0307
     12 C         138.2305  139.6253  163.1905 C.3     1  UNL1        0.0613
     13 C         138.4115  138.3717  162.3871 C.3     1  UNL1        0.0083
     14 C         137.3976  140.7493  162.6493 C.3     1  UNL1        0.0339
     15 C         138.0292  142.0785  162.3592 C.ar    1  UNL1       -0.0187
     16 C         138.9989  142.2161  161.2232 C.ar    1  UNL1        0.0164
     17 C         139.6305  143.5454  160.9330 C.ar    1  UNL1        0.0986
     18 N         139.2923  144.7371  161.7790 N.ar    1  UNL1       -0.2423
     19 C         138.3225  144.5994  162.9150 C.ar    1  UNL1        0.0986
     20 C         137.6910  143.2702  163.2051 C.ar    1  UNL1        0.0164
     21 C         141.3889  140.2356  163.7401 C.3     1  UNL1        0.1339
     22 C         142.0708  141.5649  163.6065 C.ar    1  UNL1        0.0005
     23 C         143.4310  141.6504  162.9799 C.ar    1  UNL1       -0.0015
     24 C         144.1130  142.9797  162.8463 C.ar    1  UNL1        0.0111
     25 C         143.4348  144.2235  163.3391 C.ar    1  UNL1        0.0577
     26 CL        144.1167  145.5528  163.2054 Cl      1  UNL1       -0.0822
     27 C         142.0746  144.1381  163.9656 C.ar    1  UNL1        0.0111
     28 C         141.3926  142.8087  164.0993 C.ar    1  UNL1       -0.0015
@<TRIPOS>BOND
     1     1     2    1
     2     2     3   ar
     3     3     4   ar
     4     4     5   ar
     5     5     6   ar
     6     6    12    1
     7    12    13    1
     8    12    14    1
     9    14    15    1
    10    15    16   ar
    11    16    17   ar
    12    17    18   ar
    13    18    19   ar
    14    19    20   ar
    15     6     7   ar
    16     7    21    1
    17    21    22    1
    18    22    23   ar
    19    23    24   ar
    20    24    25   ar
    21    25    26    1
    22    25    27   ar
    23    27    28   ar
    24     7     8   ar
    25     8     9   ar
    26     9    10   ar
    27    10    11    1
    28    10     2   ar
    29     8     4   ar
    30    20    15   ar
    31    28    22   ar
@<TRIPOS>MOLECULE
*****
 28 31 0 0 0
SMALL
GASTEIGER

@<TRIPOS>ATOM
      1 C         142.6889  142.6232  170.9614 C.3     1  UNL1        0.0307
      2 C         142.1861  142.1383  169.6340 C.ar    1  UNL1       -0.0242
      3 C         142.8556  140.9798  168.9561 C.ar    1  UNL1        0.0160
      4 C         142.3528  140.4948  167.6287 C.ar    1  UNL1        0.0980
      5 N         142.8067  139.3841  166.7283 N.ar    1  UNL1       -0.2310
      6 C         141.9148  139.3714  165.5223 C.ar    1  UNL1        0.1204
      7 N         140.9098  140.4741  165.6773 N.ar    1  UNL1       -0.3107
      8 C         141.1805  141.1684  166.9791 C.ar    1  UNL1        0.0785
      9 C         140.5110  142.3269  167.6570 C.ar    1  UNL1        0.0142
     10 C         141.0138  142.8118  168.9844 C.ar    1  UNL1       -0.0243
     11 C         140.3442  143.9704  169.6622 C.3     1  UNL1        0.0307
     12 C         142.0111  138.4225  164.3646 C.3     1  UNL1        0.0613
     13 C         140.9120  137.4335  164.1120 C.3     1  UNL1        0.0083
     14 C         143.2065  138.4626  163.4594 C.3     1  UNL1        0.0339
     15 C         143.8583  139.7741  163.1354 C.ar    1  UNL1       -0.0187
     16 C         145.0621  140.2246  163.9087 C.ar    1  UNL1        0.0164
     17 C         145.7139  141.5362  163.5847 C.ar    1  UNL1        0.0986
     18 N         145.1619  142.3973  162.4875 N.ar    1  UNL1       -0.2423
     19 C         143.9580  141.9467  161.7142 C.ar    1  UNL1        0.0986
     20 C         143.3063  140.6352  162.0382 C.ar    1  UNL1        0.0164
     21 C         139.8246  140.8215  164.7018 C.3     1  UNL1        0.1339
     22 C         139.8145  142.1670  164.0389 C.ar    1  UNL1        0.0005
     23 C         138.5215  142.7573  163.5598 C.ar    1  UNL1       -0.0015
     24 C         138.5113  144.1028  162.8968 C.ar    1  UNL1        0.0111
     25 C         139.7942  144.8580  162.7130 C.ar    1  UNL1        0.0577
     26 CL        139.7841  146.2035  162.0501 Cl      1  UNL1       -0.0822
     27 C         141.0873  144.2678  163.1921 C.ar    1  UNL1        0.0111
     28 C         141.0974  142.9222  163.8551 C.ar    1  UNL1       -0.0015
@<TRIPOS>BOND
     1     1     2    1
     2     2     3   ar
     3     3     4   ar
     4     4     5   ar
     5     5     6   ar
     6     6    12    1
     7    12    13    1
     8    12    14    1
     9    14    15    1
    10    15    16   ar
    11    16    17   ar
    12    17    18   ar
    13    18    19   ar
    14    19    20   ar
    15     6     7   ar
    16     7    21    1
    17    21    22    1
    18    22    23   ar
    19    23    24   ar
    20    24    25   ar
    21    25    26    1
    22    25    27   ar
    23    27    28   ar
    24     7     8   ar
    25     8     9   ar
    26     9    10   ar
    27    10    11    1
    28    10     2   ar
    29     8     4   ar
    30    20    15   ar
    31    28    22   ar
@<TRIPOS>MOLECULE
*****
 28 31 0 0 0
SMALL
GASTEIGER

@<TRIPOS>ATOM
      1 C         140.2135  140.5112  170.7241 C.3     1  UNL1        0.0307
      2 C         140.9320  140.7176  169.4237 C.ar    1  UNL1       -0.0242
      3 C         140.5006  141.8128  168.4941 C.ar    1  UNL1        0.0160
      4 C         141.2190  142.0192  167.1936 C.ar    1  UNL1        0.0980
      5 N         141.0212  143.0087  166.0837 N.ar    1  UNL1       -0.2310
      6 C         142.0489  142.7313  165.0269 C.ar    1  UNL1        0.1204
      7 N         142.8818  141.5704  165.4836 N.ar    1  UNL1       -0.3107
      8 C         142.3689  141.1303  166.8228 C.ar    1  UNL1        0.0785
      9 C         142.8003  140.0350  167.7524 C.ar    1  UNL1        0.0142
     10 C         142.0819  139.8287  169.0528 C.ar    1  UNL1       -0.0243
     11 C         142.5133  138.7333  169.9824 C.3     1  UNL1        0.0307
     12 C         142.2147  143.4828  163.7393 C.3     1  UNL1        0.0613
     13 C         143.0240  144.7453  163.7066 C.3     1  UNL1        0.0083
     14 C         141.5711  142.9718  162.4844 C.3     1  UNL1        0.0339
     15 C         140.1456  142.5057  162.5088 C.ar    1  UNL1       -0.0187
     16 C         139.8308  141.0469  162.3582 C.ar    1  UNL1        0.0164
     17 C         138.4052  140.5808  162.3826 C.ar    1  UNL1        0.0986
     18 N         137.2945  141.5736  162.5576 N.ar    1  UNL1       -0.2423
     19 C         137.6093  143.0325  162.7082 C.ar    1  UNL1        0.0986
     20 C         139.0348  143.4985  162.6838 C.ar    1  UNL1        0.0164
     21 C         144.0267  140.9572  164.7331 C.3     1  UNL1        0.1339
     22 C         143.7606  140.0665  163.5560 C.ar    1  UNL1        0.0005
     23 C         144.4122  140.3535  162.2357 C.ar    1  UNL1       -0.0015
     24 C         144.1462  139.4628  161.0585 C.ar    1  UNL1        0.0111
     25 C         143.2285  138.2850  161.2015 C.ar    1  UNL1        0.0577
     26 CL        142.9624  137.3942  160.0243 Cl      1  UNL1       -0.0822
     27 C         142.5768  137.9978  162.5217 C.ar    1  UNL1        0.0111
     28 C         142.8429  138.8886  163.6989 C.ar    1  UNL1       -0.0015
@<TRIPOS>BOND
     1     1     2    1
     2     2     3   ar
     3     3     4   ar
     4     4     5   ar
     5     5     6   ar
     6     6    12    1
     7    12    13    1
     8    12    14    1
     9    14    15    1
    10    15    16   ar
    11    16    17   ar
    12    17    18   ar
    13    18    19   ar
    14    19    20   ar
    15     6     7   ar
    16     7    21    1
    17    21    22    1
    18    22    23   ar
    19    23    24   ar
    20    24    25   ar
    21    25    26    1
    22    25    27   ar
    23    27    28   ar
    24     7     8   ar
    25     8     9   ar
    26     9    10   ar
    27    10    11    1
    28    10     2   ar
    29     8     4   ar
    30    20    15   ar
    31    28    22   ar
@<TRIPOS>MOLECULE
*****
 28 31 0 0 0
SMALL
GASTEIGER

@<TRIPOS>ATOM
      1 C         138.3384  137.2758  163.1265 C.3     1  UNL1        0.0307
      2 C         138.7929  138.6029  163.6579 C.ar    1  UNL1       -0.0242
      3 C         139.3215  139.6458  162.7183 C.ar    1  UNL1        0.0160
      4 C         139.7760  140.9729  163.2497 C.ar    1  UNL1        0.0980
      5 N         140.3387  142.1864  162.5709 N.ar    1  UNL1       -0.2310
      6 C         140.6125  143.2205  163.6224 C.ar    1  UNL1        0.1204
      7 N         140.2189  142.6461  164.9510 N.ar    1  UNL1       -0.3107
      8 C         139.7020  141.2570  164.7206 C.ar    1  UNL1        0.0785
      9 C         139.1734  140.2140  165.6602 C.ar    1  UNL1        0.0142
     10 C         138.7189  138.8870  165.1288 C.ar    1  UNL1       -0.0243
     11 C         138.1903  137.8440  166.0685 C.3     1  UNL1        0.0307
     12 C         141.1801  144.5889  163.3867 C.3     1  UNL1        0.0613
     13 C         140.2958  145.6913  162.8839 C.3     1  UNL1        0.0083
     14 C         142.6319  144.8548  163.6538 C.3     1  UNL1        0.0339
     15 C         143.6543  143.7967  163.3620 C.ar    1  UNL1       -0.0187
     16 C         143.9398  143.4005  161.9438 C.ar    1  UNL1        0.0164
     17 C         144.9622  142.3423  161.6519 C.ar    1  UNL1        0.0986
     18 N         145.6990  141.6804  162.7784 N.ar    1  UNL1       -0.2423
     19 C         145.4134  142.0766  164.1967 C.ar    1  UNL1        0.0986
     20 C         144.3911  143.1347  164.4885 C.ar    1  UNL1        0.0164
     21 C         140.3239  143.3391  166.2771 C.3     1  UNL1        0.1339
     22 C         140.9229  142.6240  167.4518 C.ar    1  UNL1        0.0005
     23 C         140.2515  142.6892  168.7916 C.ar    1  UNL1       -0.0015
     24 C         140.8504  141.9741  169.9663 C.ar    1  UNL1        0.0111
     25 C         142.1208  141.1939  169.8012 C.ar    1  UNL1        0.0577
     26 CL        142.7198  140.4788  170.9759 Cl      1  UNL1       -0.0822
     27 C         142.7923  141.1287  168.4615 C.ar    1  UNL1        0.0111
     28 C         142.1933  141.8438  167.2867 C.ar    1  UNL1       -0.0015
@<TRIPOS>BOND
     1     1     2    1
     2     2     3   ar
     3     3     4   ar
     4     4     5   ar
     5     5     6   ar
     6     6    12    1
     7    12    13    1
     8    12    14    1
     9    14    15    1
    10    15    16   ar
    11    16    17   ar
    12    17    18   ar
    13    18    19   ar
    14    19    20   ar
    15     6     7   ar
    16     7    21    1
    17    21    22    1
    18    22    23   ar
    19    23    24   ar
    20    24    25   ar
    21    25    26    1
    22    25    27   ar
    23    27    28   ar
    24     7     8   ar
    25     8     9   ar
    26     9    10   ar
    27    10    11    1
    28    10     2   ar
    29     8     4   ar
    30    20    15   ar
    31    28    22   ar
@<TRIPOS>MOLECULE
*****
 28 31 0 0 0
SMALL
GASTEIGER

@<TRIPOS>ATOM
      1 C         140.0888  142.6155  170.8656 C.3     1  UNL1        0.0307
      2 C         140.5835  141.8405  169.6805 C.ar    1  UNL1       -0.0242
      3 C         139.6234  141.0321  168.8591 C.ar    1  UNL1        0.0160
      4 C         140.1182  140.2571  167.6740 C.ar    1  UNL1        0.0980
      5 N         139.4130  139.3773  166.6846 N.ar    1  UNL1       -0.2310
      6 C         140.4320  138.8670  165.7094 C.ar    1  UNL1        0.1204
      7 N         141.7669  139.4313  166.0960 N.ar    1  UNL1       -0.3107
      8 C         141.5730  140.2905  167.3102 C.ar    1  UNL1        0.0785
      9 C         142.5330  141.0989  168.1315 C.ar    1  UNL1        0.0142
     10 C         142.0383  141.8739  169.3167 C.ar    1  UNL1       -0.0243
     11 C         142.9985  142.6823  170.1381 C.3     1  UNL1        0.0307
     12 C         140.1633  137.9527  164.5508 C.3     1  UNL1        0.0613
     13 C         141.1307  136.8546  164.2220 C.3     1  UNL1        0.0083
     14 C         138.9273  138.1368  163.7212 C.3     1  UNL1        0.0339
     15 C         138.6855  139.4373  163.0139 C.ar    1  UNL1       -0.0187
     16 C         139.2987  139.6840  161.6675 C.ar    1  UNL1        0.0164
     17 C         139.0569  140.9845  160.9601 C.ar    1  UNL1        0.0986
     18 N         138.2019  142.0382  161.5993 N.ar    1  UNL1       -0.2423
     19 C         137.5886  141.7914  162.9458 C.ar    1  UNL1        0.0986
     20 C         137.8304  140.4910  163.6531 C.ar    1  UNL1        0.0164
     21 C         143.0675  139.1806  165.3920 C.3     1  UNL1        0.1339
     22 C         143.5005  140.0808  164.2731 C.ar    1  UNL1        0.0005
     23 C         144.9351  140.5050  164.1640 C.ar    1  UNL1       -0.0015
     24 C         145.3682  141.4052  163.0450 C.ar    1  UNL1        0.0111
     25 C         144.3666  141.8812  162.0351 C.ar    1  UNL1        0.0577
     26 CL        144.7995  142.7814  160.9161 Cl      1  UNL1       -0.0822
     27 C         142.9319  141.4571  162.1440 C.ar    1  UNL1        0.0111
     28 C         142.4988  140.5568  163.2631 C.ar    1  UNL1       -0.0015
@<TRIPOS>BOND
     1     1     2    1
     2     2     3   ar
     3     3     4   ar
     4     4     5   ar
     5     5     6   ar
     6     6    12    1
     7    12    13    1
     8    12    14    1
     9    14    15    1
    10    15    16   ar
    11    16    17   ar
    12    17    18   ar
    13    18    19   ar
    14    19    20   ar
    15     6     7   ar
    16     7    21    1
    17    21    22    1
    18    22    23   ar
    19    23    24   ar
    20    24    25   ar
    21    25    26    1
    22    25    27   ar
    23    27    28   ar
    24     7     8   ar
    25     8     9   ar
    26     9    10   ar
    27    10    11    1
    28    10     2   ar
    29     8     4   ar
    30    20    15   ar
    31    28    22   ar
@<TRIPOS>MOLECULE
*****
 28 31 0 0 0
SMALL
GASTEIGER

@<TRIPOS>ATOM
      1 C         141.6832  145.0829  157.1518 C.3     1  UNL1        0.0307
      2 C         140.9687  144.6123  158.3839 C.ar    1  UNL1       -0.0242
      3 C         141.4056  145.0956  159.7350 C.ar    1  UNL1        0.0160
      4 C         140.6911  144.6251  160.9671 C.ar    1  UNL1        0.0980
      5 N         140.8946  144.9268  162.4223 N.ar    1  UNL1       -0.2310
      6 C         139.8687  144.1595  163.2026 C.ar    1  UNL1        0.1204
      7 N         139.0313  143.3836  162.2297 N.ar    1  UNL1       -0.3107
      8 C         139.5395  143.6713  160.8481 C.ar    1  UNL1        0.0785
      9 C         139.1025  143.1881  159.4970 C.ar    1  UNL1        0.0142
     10 C         139.8171  143.6586  158.2649 C.ar    1  UNL1       -0.0243
     11 C         139.3800  143.1753  156.9138 C.3     1  UNL1        0.0307
     12 C         139.7085  144.1669  164.6941 C.3     1  UNL1        0.0613
     13 C         138.6021  144.9587  165.3256 C.3     1  UNL1        0.0083
     14 C         140.6546  143.3824  165.5539 C.3     1  UNL1        0.0339
     15 C         141.8151  142.6648  164.9307 C.ar    1  UNL1       -0.0187
     16 C         141.6283  141.2900  164.3606 C.ar    1  UNL1        0.0164
     17 C         142.7888  140.5724  163.7374 C.ar    1  UNL1        0.0986
     18 N         144.1360  141.2297  163.6842 N.ar    1  UNL1       -0.2423
     19 C         144.3228  142.6046  164.2542 C.ar    1  UNL1        0.0986
     20 C         143.1624  143.3221  164.8775 C.ar    1  UNL1        0.0164
     21 C         137.8866  142.4787  162.5773 C.3     1  UNL1        0.1339
     22 C         138.1469  141.1668  163.2563 C.ar    1  UNL1        0.0005
     23 C         138.5722  139.9761  162.4493 C.ar    1  UNL1       -0.0015
     24 C         138.8326  138.6641  163.1281 C.ar    1  UNL1        0.0111
     25 C         138.6677  138.5428  164.6141 C.ar    1  UNL1        0.0577
     26 CL        138.9280  137.2309  165.2930 Cl      1  UNL1       -0.0822
     27 C         138.2424  139.7335  165.4212 C.ar    1  UNL1        0.0111
     28 C         137.9820  141.0455  164.7422 C.ar    1  UNL1       -0.0015
@<TRIPOS>BOND
     1     1     2    1
     2     2     3   ar
     3     3     4   ar
     4     4     5   ar
     5     5     6   ar
     6     6    12    1
     7    12    13    1
     8    12    14    1
     9    14    15    1
    10    15    16   ar
    11    16    17   ar
    12    17    18   ar
    13    18    19   ar
    14    19    20   ar
    15     6     7   ar
    16     7    21    1
    17    21    22    1
    18    22    23   ar
    19    23    24   ar
    20    24    25   ar
    21    25    26    1
    22    25    27   ar
    23    27    28   ar
    24     7     8   ar
    25     8     9   ar
    26     9    10   ar
    27    10    11    1
    28    10     2   ar
    29     8     4   ar
    30    20    15   ar
    31    28    22   ar
@<TRIPOS>MOLECULE
*****
 28 31 0 0 0
SMALL
GASTEIGER

@<TRIPOS>ATOM
      1 C         141.0223  145.6723  157.2508 C.3     1  UNL1        0.0307
      2 C         140.5384  144.9703  158.4849 C.ar    1  UNL1       -0.0242
      3 C         140.8796  145.5150  159.8402 C.ar    1  UNL1        0.0160
      4 C         140.3957  144.8129  161.0743 C.ar    1  UNL1        0.0980
      5 N         140.5724  145.1119  162.5336 N.ar    1  UNL1       -0.2310
      6 C         139.8564  144.0498  163.3143 C.ar    1  UNL1        0.1204
      7 N         139.2373  143.0946  162.3375 N.ar    1  UNL1       -0.3107
      8 C         139.5706  143.5662  160.9531 C.ar    1  UNL1        0.0785
      9 C         139.2293  143.0215  159.5978 C.ar    1  UNL1        0.0142
     10 C         139.7132  143.7236  158.3637 C.ar    1  UNL1       -0.0243
     11 C         139.3719  143.1788  157.0084 C.3     1  UNL1        0.0307
     12 C         139.7741  143.9590  164.8093 C.3     1  UNL1        0.0613
     13 C         138.6458  144.6244  165.5401 C.3     1  UNL1        0.0083
     14 C         140.8200  143.2026  165.5735 C.3     1  UNL1        0.0339
     15 C         140.4306  142.3845  166.7688 C.ar    1  UNL1       -0.0187
     16 C         140.6217  142.9369  168.1502 C.ar    1  UNL1        0.0164
     17 C         140.2323  142.1188  169.3457 C.ar    1  UNL1        0.0986
     18 N         139.6519  140.7482  169.1597 N.ar    1  UNL1       -0.2423
     19 C         139.4609  140.1957  167.7782 C.ar    1  UNL1        0.0986
     20 C         139.8502  141.0139  166.5828 C.ar    1  UNL1        0.0164
     21 C         138.4270  141.8808  162.6841 C.3     1  UNL1        0.1339
     22 C         139.1130  140.6220  163.1255 C.ar    1  UNL1        0.0005
     23 C         140.5992  140.4855  162.9750 C.ar    1  UNL1       -0.0015
     24 C         141.2853  139.2267  163.4164 C.ar    1  UNL1        0.0111
     25 C         140.4853  138.1045  164.0083 C.ar    1  UNL1        0.0577
     26 CL        141.1713  136.8457  164.4497 Cl      1  UNL1       -0.0822
     27 C         138.9991  138.2409  164.1588 C.ar    1  UNL1        0.0111
     28 C         138.3130  139.4998  163.7174 C.ar    1  UNL1       -0.0015
@<TRIPOS>BOND
     1     1     2    1
     2     2     3   ar
     3     3     4   ar
     4     4     5   ar
     5     5     6   ar
     6     6    12    1
     7    12    13    1
     8    12    14    1
     9    14    15    1
    10    15    16   ar
    11    16    17   ar
    12    17    18   ar
    13    18    19   ar
    14    19    20   ar
    15     6     7   ar
    16     7    21    1
    17    21    22    1
    18    22    23   ar
    19    23    24   ar
    20    24    25   ar
    21    25    26    1
    22    25    27   ar
    23    27    28   ar
    24     7     8   ar
    25     8     9   ar
    26     9    10   ar
    27    10    11    1
    28    10     2   ar
    29     8     4   ar
    30    20    15   ar
    31    28    22   ar
