@<TRIPOS>MOLECULE
*****
 40 44 0 0 0
SMALL
GASTEIGER

@<TRIPOS>ATOM
      1 C         143.4482  138.9747  164.1937 C.ar    1  UNL1        0.0056
      2 C         142.3534  138.1298  163.6127 C.ar    1  UNL1       -0.0018
      3 C         142.2558  137.9463  162.1273 C.ar    1  UNL1        0.0029
      4 C         143.2531  138.6076  161.2227 C.ar    1  UNL1        0.0391
      5 C         144.3479  139.4524  161.8037 C.ar    1  UNL1        0.0029
      6 C         144.4454  139.6360  163.2892 C.ar    1  UNL1       -0.0018
      7 C         143.1555  138.4240  159.7372 C.ar    1  UNL1        0.2037
      8 N         143.8811  139.2286  158.6998 N.ar    1  UNL1       -0.0555
      9 O         143.4892  138.7056  157.3497 O.2     1  UNL1       -0.3291
     10 C         142.5214  137.5776  157.5527 C.ar    1  UNL1        0.2973
     11 N         142.3152  137.4036  159.0282 N.ar    1  UNL1       -0.1843
     12 C         141.8736  136.7661  156.4701 C.ar    1  UNL1        0.2363
     13 O         140.6743  137.1688  155.6643 O.2     1  UNL1       -0.3486
     14 N         140.3708  136.0610  154.6995 N.ar    1  UNL1       -0.0768
     15 C         141.3827  134.9737  154.9091 C.ar    1  UNL1        0.1270
     16 C         142.3114  135.4095  156.0034 C.ar    1  UNL1        0.1340
     17 C         141.4533  133.6782  154.1565 C.ar    1  UNL1        0.0209
     18 C         141.9310  133.6619  152.7346 C.ar    1  UNL1        0.0016
     19 C         142.0016  132.3663  151.9819 C.ar    1  UNL1        0.0000
     20 C         141.5946  131.0871  152.6511 C.ar    1  UNL1        0.0000
     21 C         141.1169  131.1033  154.0729 C.ar    1  UNL1        0.0000
     22 C         141.0463  132.3989  154.8256 C.ar    1  UNL1        0.0016
     23 C         143.4739  134.6262  156.5372 C.3     1  UNL1        0.4232
     24 F         144.6365  133.8428  157.0710 F       1  UNL1       -0.1657
     25 F         142.5358  133.7972  157.3637 F       1  UNL1       -0.1657
     26 F         144.4119  135.4550  155.7108 F       1  UNL1       -0.1657
     27 C         143.5458  139.1583  165.6793 C.3     1  UNL1        0.1486
     28 O         144.2906  138.1568  166.5114 O.3     1  UNL1       -0.3786
     29 H         144.6445  137.4592  165.9378 H       1  UNL1        0.2108
     30 C         142.8987  140.3433  166.3327 C.3     1  UNL1        0.1063
     31 C         140.2210  140.3320  169.2619 C.3     1  UNL1        0.0216
     32 C         139.0027  139.8519  168.5304 C.3     1  UNL1        0.0032
     33 C         139.0830  139.5356  167.0663 C.3     1  UNL1        0.0174
     34 C         140.3816  139.6994  166.3338 C.3     1  UNL1        0.0722
     35 N         141.5999  140.1795  167.0653 N.3     1  UNL1       -0.2704
     36 C         141.5196  140.4958  168.5293 C.3     1  UNL1        0.0725
     37 C         140.1407  140.6484  170.7260 C.3     1  UNL1        0.0431
     38 O         141.9346  142.2514  171.7070 O.co2   1  UNL1       -0.5492
     39 C         140.5361  142.0075  171.2224 C.2     1  UNL1        0.0504
     40 O         139.5330  143.1227  171.2343 O.co2   1  UNL1       -0.5492
@<TRIPOS>UNITY_ATOM_ATTR
38 1
charge -1
@<TRIPOS>BOND
     1    38    39   ar
     2    39    40   ar
     3    39    37    1
     4    31    37    1
     5    31    32    1
     6    32    33    1
     7    33    34    1
     8    34    35    1
     9    35    30    1
    10    30    27    1
    11    27    28    1
    12    27     1    1
    13     1     2   ar
    14     2     3   ar
    15     3     4   ar
    16     4     7    1
    17     7     8   ar
    18     8     9   ar
    19     9    10   ar
    20    10    12    1
    21    12    13   ar
    22    13    14   ar
    23    14    15   ar
    24    15    17    1
    25    17    18   ar
    26    18    19   ar
    27    19    20   ar
    28    20    21   ar
    29    21    22   ar
    30    15    16   ar
    31    16    23    1
    32    23    24    1
    33    23    25    1
    34    23    26    1
    35    10    11   ar
    36     4     5   ar
    37     5     6   ar
    38    35    36    1
    39    36    31    1
    40     6     1   ar
    41    11     7   ar
    42    16    12   ar
    43    22    17   ar
    44    28    29    1
@<TRIPOS>MOLECULE
*****
 40 44 0 0 0
SMALL
GASTEIGER

@<TRIPOS>ATOM
      1 C         139.4574  139.1223  157.2773 C.ar    1  UNL1        0.0056
      2 C         138.4828  140.2352  157.5253 C.ar    1  UNL1       -0.0018
      3 C         138.1025  140.5999  158.9296 C.ar    1  UNL1        0.0029
      4 C         138.6967  139.8518  160.0860 C.ar    1  UNL1        0.0391
      5 C         139.6713  138.7388  159.8379 C.ar    1  UNL1        0.0029
      6 C         140.0516  138.3741  158.4336 C.ar    1  UNL1       -0.0018
      7 C         138.3163  140.2166  161.4904 C.ar    1  UNL1        0.2037
      8 N         137.3338  141.2771  161.8905 N.ar    1  UNL1       -0.0555
      9 O         137.2619  141.3009  163.3886 O.2     1  UNL1       -0.3291
     10 C         138.2000  140.2550  163.9143 C.ar    1  UNL1        0.2973
     11 N         138.8516  139.5849  162.7412 N.ar    1  UNL1       -0.1843
     12 C         138.4436  139.9355  165.3595 C.ar    1  UNL1        0.2363
     13 O         137.6380  138.9911  166.2016 O.2     1  UNL1       -0.3486
     14 N         138.2321  138.9761  167.5788 N.ar    1  UNL1       -0.0768
     15 C         139.4049  139.9113  167.5879 C.ar    1  UNL1        0.1270
     16 C         139.5355  140.5042  166.2163 C.ar    1  UNL1        0.1340
     17 C         140.2912  140.2024  168.7624 C.ar    1  UNL1        0.0209
     18 C         139.7319  140.8925  169.9712 C.ar    1  UNL1        0.0016
     19 C         140.6184  141.1836  171.1458 C.ar    1  UNL1        0.0000
     20 C         142.0639  140.7847  171.1116 C.ar    1  UNL1        0.0000
     21 C         142.6231  140.0946  169.9029 C.ar    1  UNL1        0.0000
     22 C         141.7368  139.8035  168.7283 C.ar    1  UNL1        0.0016
     23 C         140.5756  141.4923  165.7784 C.3     1  UNL1        0.4232
     24 F         141.6158  142.4805  165.3404 F       1  UNL1       -0.1657
     25 F         139.6872  142.6201  166.2131 F       1  UNL1       -0.1657
     26 F         141.4640  140.3646  165.3437 F       1  UNL1       -0.1657
     27 C         139.8378  138.7574  155.8728 C.3     1  UNL1        0.1486
     28 O         140.5591  139.7496  155.0094 O.3     1  UNL1       -0.3786
     29 H         140.7006  140.5695  155.5081 H       1  UNL1        0.2108
     30 C         139.4969  137.4006  155.3319 C.3     1  UNL1        0.1063
     31 C         142.6877  135.0804  155.7630 C.3     1  UNL1        0.0216
     32 C         142.7746  134.4617  154.3994 C.3     1  UNL1        0.0032
     33 C         141.7689  134.8225  153.3466 C.3     1  UNL1        0.0174
     34 C         140.6764  135.8021  153.6574 C.3     1  UNL1        0.0722
     35 N         140.5895  136.4209  155.0210 N.3     1  UNL1       -0.2704
     36 C         141.5952  136.0601  156.0738 C.3     1  UNL1        0.0725
     37 C         143.6934  134.7196  156.8158 C.3     1  UNL1        0.0431
     38 O         142.5781  132.4006  157.1741 O.co2   1  UNL1       -0.5492
     39 C         143.7514  133.3187  157.3488 C.2     1  UNL1        0.0504
     40 O         144.9827  132.8359  158.0565 O.co2   1  UNL1       -0.5492
@<TRIPOS>UNITY_ATOM_ATTR
38 1
charge -1
@<TRIPOS>BOND
     1    38    39   ar
     2    39    40   ar
     3    39    37    1
     4    31    37    1
     5    31    32    1
     6    32    33    1
     7    33    34    1
     8    34    35    1
     9    35    30    1
    10    30    27    1
    11    27    28    1
    12    27     1    1
    13     1     2   ar
    14     2     3   ar
    15     3     4   ar
    16     4     7    1
    17     7     8   ar
    18     8     9   ar
    19     9    10   ar
    20    10    12    1
    21    12    13   ar
    22    13    14   ar
    23    14    15   ar
    24    15    17    1
    25    17    18   ar
    26    18    19   ar
    27    19    20   ar
    28    20    21   ar
    29    21    22   ar
    30    15    16   ar
    31    16    23    1
    32    23    24    1
    33    23    25    1
    34    23    26    1
    35    10    11   ar
    36     4     5   ar
    37     5     6   ar
    38    35    36    1
    39    36    31    1
    40     6     1   ar
    41    11     7   ar
    42    16    12   ar
    43    22    17   ar
    44    28    29    1
@<TRIPOS>MOLECULE
*****
 40 44 0 0 0
SMALL
GASTEIGER

@<TRIPOS>ATOM
      1 C         141.9190  138.0589  157.8878 C.ar    1  UNL1        0.0056
      2 C         140.4438  138.3045  157.7721 C.ar    1  UNL1       -0.0018
      3 C         139.6424  138.6465  158.9931 C.ar    1  UNL1        0.0029
      4 C         140.3162  138.7427  160.3298 C.ar    1  UNL1        0.0391
      5 C         141.7914  138.4971  160.4455 C.ar    1  UNL1        0.0029
      6 C         142.5928  138.1551  159.2245 C.ar    1  UNL1       -0.0018
      7 C         139.5147  139.0847  161.5508 C.ar    1  UNL1        0.2037
      8 N         138.1222  139.6422  161.5637 N.ar    1  UNL1       -0.0555
      9 O         137.7119  139.8313  162.9941 O.2     1  UNL1       -0.3291
     10 C         138.8509  139.3906  163.8651 C.ar    1  UNL1        0.2973
     11 N         139.9651  138.9293  162.9731 N.ar    1  UNL1       -0.1843
     12 C         138.8720  139.4083  165.3649 C.ar    1  UNL1        0.2363
     13 O         137.8693  138.7541  166.2685 O.2     1  UNL1       -0.3486
     14 N         138.2770  139.0248  167.6864 N.ar    1  UNL1       -0.0768
     15 C         139.5317  139.8464  167.6591 C.ar    1  UNL1        0.1270
     16 C         139.8994  140.0834  166.2243 C.ar    1  UNL1        0.1340
     17 C         140.2862  140.3435  168.8563 C.ar    1  UNL1        0.0209
     18 C         139.7230  141.4577  169.6881 C.ar    1  UNL1        0.0016
     19 C         140.4775  141.9549  170.8855 C.ar    1  UNL1        0.0000
     20 C         141.7950  141.3380  171.2510 C.ar    1  UNL1        0.0000
     21 C         142.3581  140.2239  170.4193 C.ar    1  UNL1        0.0000
     22 C         141.6037  139.7267  169.2220 C.ar    1  UNL1        0.0016
     23 C         141.0861  140.8593  165.7349 C.3     1  UNL1        0.4232
     24 F         142.2729  141.6353  165.2455 F       1  UNL1       -0.1657
     25 F         141.8613  139.5831  165.5911 F       1  UNL1       -0.1657
     26 F         140.3111  142.1354  165.8787 F       1  UNL1       -0.1657
     27 C         142.7205  137.7169  156.6668 C.3     1  UNL1        0.1486
     28 O         144.1072  138.2645  156.5023 O.3     1  UNL1       -0.3786
     29 H         144.3300  138.8160  157.2686 H       1  UNL1        0.2108
     30 C         142.1352  136.8274  155.6104 C.3     1  UNL1        0.1063
     31 C         143.3445  133.2266  156.7600 C.3     1  UNL1        0.0216
     32 C         142.3379  132.3554  156.0689 C.3     1  UNL1        0.0032
     33 C         141.2637  132.9749  155.2248 C.3     1  UNL1        0.0174
     34 C         141.1961  134.4655  155.0720 C.3     1  UNL1        0.0722
     35 N         142.2027  135.3367  155.7632 N.3     1  UNL1       -0.2704
     36 C         143.2769  134.7172  156.6072 C.3     1  UNL1        0.0725
     37 C         144.4187  132.6071  157.6041 C.3     1  UNL1        0.0431
     38 O         145.2774  130.7650  155.9856 O.co2   1  UNL1       -0.5492
     39 C         144.8427  131.1897  157.3571 C.2     1  UNL1        0.0504
     40 O         144.8319  130.1968  158.4814 O.co2   1  UNL1       -0.5492
@<TRIPOS>UNITY_ATOM_ATTR
38 1
charge -1
@<TRIPOS>BOND
     1    38    39   ar
     2    39    40   ar
     3    39    37    1
     4    31    37    1
     5    31    32    1
     6    32    33    1
     7    33    34    1
     8    34    35    1
     9    35    30    1
    10    30    27    1
    11    27    28    1
    12    27     1    1
    13     1     2   ar
    14     2     3   ar
    15     3     4   ar
    16     4     7    1
    17     7     8   ar
    18     8     9   ar
    19     9    10   ar
    20    10    12    1
    21    12    13   ar
    22    13    14   ar
    23    14    15   ar
    24    15    17    1
    25    17    18   ar
    26    18    19   ar
    27    19    20   ar
    28    20    21   ar
    29    21    22   ar
    30    15    16   ar
    31    16    23    1
    32    23    24    1
    33    23    25    1
    34    23    26    1
    35    10    11   ar
    36     4     5   ar
    37     5     6   ar
    38    35    36    1
    39    36    31    1
    40     6     1   ar
    41    11     7   ar
    42    16    12   ar
    43    22    17   ar
    44    28    29    1
@<TRIPOS>MOLECULE
*****
 40 44 0 0 0
SMALL
GASTEIGER

@<TRIPOS>ATOM
      1 C         143.1011  138.9154  164.6589 C.ar    1  UNL1        0.0056
      2 C         142.0062  138.1268  164.0037 C.ar    1  UNL1       -0.0018
      3 C         141.9846  137.9695  162.5122 C.ar    1  UNL1        0.0029
      4 C         143.0579  138.6009  161.6758 C.ar    1  UNL1        0.0391
      5 C         144.1527  139.3895  162.3310 C.ar    1  UNL1        0.0029
      6 C         144.1743  139.5468  163.8225 C.ar    1  UNL1       -0.0018
      7 C         143.0362  138.4436  160.1842 C.ar    1  UNL1        0.2037
      8 N         143.8842  139.2005  159.2054 N.ar    1  UNL1       -0.0555
      9 O         143.5349  138.7265  157.8258 O.2     1  UNL1       -0.3291
     10 C         142.4709  137.6766  157.9520 C.ar    1  UNL1        0.2973
     11 N         142.1628  137.5018  159.4095 N.ar    1  UNL1       -0.1843
     12 C         141.8281  136.9323  156.8194 C.ar    1  UNL1        0.2363
     13 O         140.6119  137.3668  156.0564 O.2     1  UNL1       -0.3486
     14 N         140.3207  136.3258  155.0165 N.ar    1  UNL1       -0.0768
     15 C         141.3569  135.2479  155.1367 C.ar    1  UNL1        0.1270
     16 C         142.2885  135.6228  156.2509 C.ar    1  UNL1        0.1340
     17 C         141.4459  134.0123  154.2911 C.ar    1  UNL1        0.0209
     18 C         141.8183  134.1204  152.8420 C.ar    1  UNL1        0.0016
     19 C         141.9073  132.8846  151.9963 C.ar    1  UNL1        0.0000
     20 C         141.6238  131.5409  152.5997 C.ar    1  UNL1        0.0000
     21 C         141.2513  131.4329  154.0487 C.ar    1  UNL1        0.0000
     22 C         141.1624  132.6685  154.8944 C.ar    1  UNL1        0.0016
     23 C         143.4726  134.8277  156.7152 C.3     1  UNL1        0.4232
     24 F         144.6568  134.0325  157.1796 F       1  UNL1       -0.1657
     25 F         144.3797  135.7049  155.9042 F       1  UNL1       -0.1657
     26 F         142.5656  133.9505  157.5263 F       1  UNL1       -0.1657
     27 C         143.1228  139.0727  166.1505 C.3     1  UNL1        0.1486
     28 O         143.8777  138.0914  166.9973 O.3     1  UNL1       -0.3786
     29 H         144.2909  137.4237  166.4278 H       1  UNL1        0.2108
     30 C         142.3895  140.2113  166.7953 C.3     1  UNL1        0.1063
     31 C         139.6775  142.3398  164.8294 C.3     1  UNL1        0.0216
     32 C         140.5354  143.4241  164.2477 C.3     1  UNL1        0.0032
     33 C         142.0113  143.4375  164.5153 C.3     1  UNL1        0.0174
     34 C         142.6293  142.3666  165.3644 C.3     1  UNL1        0.0722
     35 N         141.7715  141.2823  165.9461 N.3     1  UNL1       -0.2704
     36 C         140.2956  141.2689  165.6786 C.3     1  UNL1        0.0725
     37 C         138.2017  142.3265  164.5619 C.3     1  UNL1        0.0431
     38 O         137.6229  143.8926  162.5713 O.co2   1  UNL1       -0.5492
     39 C         137.6910  142.5165  163.1644 C.2     1  UNL1        0.0504
     40 O         137.2484  141.3304  162.3598 O.co2   1  UNL1       -0.5492
@<TRIPOS>UNITY_ATOM_ATTR
38 1
charge -1
@<TRIPOS>BOND
     1    38    39   ar
     2    39    40   ar
     3    39    37    1
     4    31    37    1
     5    31    32    1
     6    32    33    1
     7    33    34    1
     8    34    35    1
     9    35    30    1
    10    30    27    1
    11    27    28    1
    12    27     1    1
    13     1     2   ar
    14     2     3   ar
    15     3     4   ar
    16     4     7    1
    17     7     8   ar
    18     8     9   ar
    19     9    10   ar
    20    10    12    1
    21    12    13   ar
    22    13    14   ar
    23    14    15   ar
    24    15    17    1
    25    17    18   ar
    26    18    19   ar
    27    19    20   ar
    28    20    21   ar
    29    21    22   ar
    30    15    16   ar
    31    16    23    1
    32    23    24    1
    33    23    25    1
    34    23    26    1
    35    10    11   ar
    36     4     5   ar
    37     5     6   ar
    38    35    36    1
    39    36    31    1
    40     6     1   ar
    41    11     7   ar
    42    16    12   ar
    43    22    17   ar
    44    28    29    1
@<TRIPOS>MOLECULE
*****
 40 44 0 0 0
SMALL
GASTEIGER

@<TRIPOS>ATOM
      1 C         141.5517  145.2883  155.9017 C.ar    1  UNL1        0.0056
      2 C         142.4652  144.5167  156.8073 C.ar    1  UNL1       -0.0018
      3 C         142.1940  144.4685  158.2818 C.ar    1  UNL1        0.0029
      4 C         141.0095  145.1918  158.8506 C.ar    1  UNL1        0.0391
      5 C         140.0960  145.9634  157.9450 C.ar    1  UNL1        0.0029
      6 C         140.3671  146.0116  156.4705 C.ar    1  UNL1       -0.0018
      7 C         140.7384  145.1436  160.3252 C.ar    1  UNL1        0.2037
      8 N         139.7620  146.0043  161.0708 N.ar    1  UNL1       -0.0555
      9 O         139.8162  145.6189  162.5194 O.2     1  UNL1       -0.3291
     10 C         140.8261  144.5198  162.6690 C.ar    1  UNL1        0.2973
     11 N         141.3959  144.2261  161.3130 N.ar    1  UNL1       -0.1843
     12 C         141.2003  143.8348  163.9500 C.ar    1  UNL1        0.2363
     13 O         142.5848  143.4302  164.3616 O.2     1  UNL1       -0.3486
     14 N         142.4959  142.7794  165.7101 N.ar    1  UNL1       -0.0768
     15 C         141.0564  142.7818  166.1320 C.ar    1  UNL1        0.1270
     16 C         140.2558  143.4341  165.0441 C.ar    1  UNL1        0.1340
     17 C         140.5132  142.2291  167.4161 C.ar    1  UNL1        0.0209
     18 C         139.9759  140.8292  167.4623 C.ar    1  UNL1        0.0016
     19 C         139.4326  140.2764  168.7466 C.ar    1  UNL1        0.0000
     20 C         139.4266  141.1233  169.9845 C.ar    1  UNL1        0.0000
     21 C         139.9638  142.5231  169.9384 C.ar    1  UNL1        0.0000
     22 C         140.5070  143.0759  168.6542 C.ar    1  UNL1        0.0016
     23 C         138.7711  143.6480  165.0495 C.3     1  UNL1        0.4232
     24 F         137.2864  143.8620  165.0548 F       1  UNL1       -0.1657
     25 F         138.9706  145.0176  165.6279 F       1  UNL1       -0.1657
     26 F         138.5717  142.2785  164.4711 F       1  UNL1       -0.1657
     27 C         141.8228  145.3366  154.4271 C.3     1  UNL1        0.1486
     28 O         141.4225  146.5426  153.6301 O.3     1  UNL1       -0.3786
     29 H         141.0045  147.1931  154.2157 H       1  UNL1        0.2108
     30 C         142.4941  144.1788  153.7497 C.3     1  UNL1        0.1063
     31 C         146.2002  142.9266  154.4184 C.3     1  UNL1        0.0216
     32 C         146.9861  143.9357  153.6348 C.3     1  UNL1        0.0032
     33 C         146.2747  145.0258  152.8894 C.3     1  UNL1        0.0174
     34 C         144.7774  145.1069  152.9277 C.3     1  UNL1        0.0722
     35 N         143.9915  144.0978  153.7114 N.3     1  UNL1       -0.2704
     36 C         144.7029  143.0077  154.4567 C.3     1  UNL1        0.0725
     37 C         146.9116  141.8365  155.1637 C.3     1  UNL1        0.0431
     38 O         147.7406  142.8537  157.4061 O.co2   1  UNL1       -0.5492
     39 C         148.0331  142.1765  156.0999 C.2     1  UNL1        0.0504
     40 O         149.4472  141.8392  155.7301 O.co2   1  UNL1       -0.5492
@<TRIPOS>UNITY_ATOM_ATTR
38 1
charge -1
@<TRIPOS>BOND
     1    38    39   ar
     2    39    40   ar
     3    39    37    1
     4    31    37    1
     5    31    32    1
     6    32    33    1
     7    33    34    1
     8    34    35    1
     9    35    30    1
    10    30    27    1
    11    27    28    1
    12    27     1    1
    13     1     2   ar
    14     2     3   ar
    15     3     4   ar
    16     4     7    1
    17     7     8   ar
    18     8     9   ar
    19     9    10   ar
    20    10    12    1
    21    12    13   ar
    22    13    14   ar
    23    14    15   ar
    24    15    17    1
    25    17    18   ar
    26    18    19   ar
    27    19    20   ar
    28    20    21   ar
    29    21    22   ar
    30    15    16   ar
    31    16    23    1
    32    23    24    1
    33    23    25    1
    34    23    26    1
    35    10    11   ar
    36     4     5   ar
    37     5     6   ar
    38    35    36    1
    39    36    31    1
    40     6     1   ar
    41    11     7   ar
    42    16    12   ar
    43    22    17   ar
    44    28    29    1
@<TRIPOS>MOLECULE
*****
 40 44 0 0 0
SMALL
GASTEIGER

@<TRIPOS>ATOM
      1 C         143.2781  138.8604  164.6710 C.ar    1  UNL1        0.0056
      2 C         144.3312  139.4897  163.8080 C.ar    1  UNL1       -0.0018
      3 C         144.2686  139.3373  162.3171 C.ar    1  UNL1        0.0029
      4 C         143.1530  138.5555  161.6893 C.ar    1  UNL1        0.0391
      5 C         142.0999  137.9261  162.5523 C.ar    1  UNL1        0.0029
      6 C         142.1625  138.0786  164.0432 C.ar    1  UNL1       -0.0018
      7 C         143.0905  138.4031  160.1983 C.ar    1  UNL1        0.2037
      8 N         143.8808  139.1928  159.1974 N.ar    1  UNL1       -0.0555
      9 O         143.5055  138.7120  157.8270 O.2     1  UNL1       -0.3291
     10 C         142.4831  137.6252  157.9810 C.ar    1  UNL1        0.2973
     11 N         142.2266  137.4344  159.4465 N.ar    1  UNL1       -0.1843
     12 C         141.8316  136.8632  156.8652 C.ar    1  UNL1        0.2363
     13 O         140.5995  137.2772  156.1165 O.2     1  UNL1       -0.3486
     14 N         140.3042  136.2232  155.0909 N.ar    1  UNL1       -0.0768
     15 C         141.3538  135.1578  155.2058 C.ar    1  UNL1        0.1270
     16 C         142.2977  135.5533  156.3023 C.ar    1  UNL1        0.1340
     17 C         141.4436  133.9151  154.3707 C.ar    1  UNL1        0.0209
     18 C         141.1701  132.5754  154.9877 C.ar    1  UNL1        0.0016
     19 C         141.2599  131.3326  154.1525 C.ar    1  UNL1        0.0000
     20 C         141.6231  131.4295  152.7005 C.ar    1  UNL1        0.0000
     21 C         141.8965  132.7691  152.0834 C.ar    1  UNL1        0.0000
     22 C         141.8068  134.0118  152.9185 C.ar    1  UNL1        0.0016
     23 C         143.4972  134.7755  156.7563 C.3     1  UNL1        0.4232
     24 F         144.6969  133.9977  157.2103 F       1  UNL1       -0.1657
     25 F         142.6102  133.8859  157.5761 F       1  UNL1       -0.1657
     26 F         144.3842  135.6650  155.9366 F       1  UNL1       -0.1657
     27 C         143.3407  139.0128  166.1620 C.3     1  UNL1        0.1486
     28 O         144.0369  137.9763  166.9933 O.3     1  UNL1       -0.3786
     29 H         144.3881  137.2808  166.4155 H       1  UNL1        0.2108
     30 C         142.7070  140.2016  166.8216 C.3     1  UNL1        0.1063
     31 C         141.2355  143.1706  164.6376 C.3     1  UNL1        0.0216
     32 C         139.7969  142.7593  164.5328 C.3     1  UNL1        0.0032
     33 C         139.3282  141.4955  165.1909 C.3     1  UNL1        0.0174
     34 C         140.2982  140.6429  165.9538 C.3     1  UNL1        0.0722
     35 N         141.7369  141.0542  166.0587 N.3     1  UNL1       -0.2704
     36 C         142.2056  142.3180  165.4006 C.3     1  UNL1        0.0725
     37 C         141.7042  144.4344  163.9795 C.3     1  UNL1        0.0431
     38 O         144.1697  144.8848  164.6640 O.co2   1  UNL1       -0.5492
     39 C         143.1479  144.5942  163.6050 C.2     1  UNL1        0.0504
     40 O         143.5697  144.4633  162.1715 O.co2   1  UNL1       -0.5492
@<TRIPOS>UNITY_ATOM_ATTR
38 1
charge -1
@<TRIPOS>BOND
     1    38    39   ar
     2    39    40   ar
     3    39    37    1
     4    31    37    1
     5    31    32    1
     6    32    33    1
     7    33    34    1
     8    34    35    1
     9    35    30    1
    10    30    27    1
    11    27    28    1
    12    27     1    1
    13     1     2   ar
    14     2     3   ar
    15     3     4   ar
    16     4     7    1
    17     7     8   ar
    18     8     9   ar
    19     9    10   ar
    20    10    12    1
    21    12    13   ar
    22    13    14   ar
    23    14    15   ar
    24    15    17    1
    25    17    18   ar
    26    18    19   ar
    27    19    20   ar
    28    20    21   ar
    29    21    22   ar
    30    15    16   ar
    31    16    23    1
    32    23    24    1
    33    23    25    1
    34    23    26    1
    35    10    11   ar
    36     4     5   ar
    37     5     6   ar
    38    35    36    1
    39    36    31    1
    40     6     1   ar
    41    11     7   ar
    42    16    12   ar
    43    22    17   ar
    44    28    29    1
@<TRIPOS>MOLECULE
*****
 40 44 0 0 0
SMALL
GASTEIGER

@<TRIPOS>ATOM
      1 C         139.0042  139.5098  163.1872 C.ar    1  UNL1        0.0056
      2 C         140.1867  139.1540  162.3356 C.ar    1  UNL1       -0.0018
      3 C         140.3746  139.8117  161.0007 C.ar    1  UNL1        0.0029
      4 C         139.3801  140.8252  160.5173 C.ar    1  UNL1        0.0391
      5 C         138.1977  141.1811  161.3689 C.ar    1  UNL1        0.0029
      6 C         138.0097  140.5234  162.7038 C.ar    1  UNL1       -0.0018
      7 C         139.5680  141.4829  159.1823 C.ar    1  UNL1        0.2037
      8 N         140.4679  141.0035  158.0822 N.ar    1  UNL1       -0.0555
      9 O         140.3452  141.9597  156.9330 O.2     1  UNL1       -0.3291
     10 C         139.3694  143.0302  157.3230 C.ar    1  UNL1        0.2973
     11 N         138.8891  142.7355  158.7131 N.ar    1  UNL1       -0.1843
     12 C         138.9480  144.1915  156.4722 C.ar    1  UNL1        0.2363
     13 O         137.7690  144.2234  155.5454 O.2     1  UNL1       -0.3486
     14 N         137.7238  145.5763  154.8993 N.ar    1  UNL1       -0.0768
     15 C         138.8750  146.3805  155.4267 C.ar    1  UNL1        0.1270
     16 C         139.6315  145.5246  156.3988 C.ar    1  UNL1        0.1340
     17 C         139.2106  147.7926  155.0484 C.ar    1  UNL1        0.0209
     18 C         138.5842  148.9367  155.7894 C.ar    1  UNL1        0.0016
     19 C         138.9199  150.3489  155.4111 C.ar    1  UNL1        0.0000
     20 C         139.8817  150.6170  154.2918 C.ar    1  UNL1        0.0000
     21 C         140.5080  149.4731  153.5508 C.ar    1  UNL1        0.0000
     22 C         140.1724  148.0609  153.9290 C.ar    1  UNL1        0.0016
     23 C         140.8565  145.9306  157.1633 C.3     1  UNL1        0.4232
     24 F         142.0816  146.3366  157.9279 F       1  UNL1       -0.1657
     25 F         141.6918  145.7239  155.9346 F       1  UNL1       -0.1657
     26 F         140.0212  146.1373  158.3919 F       1  UNL1       -0.1657
     27 C         138.8163  138.8521  164.5222 C.3     1  UNL1        0.1486
     28 O         138.7554  137.3565  164.6195 O.3     1  UNL1       -0.3786
     29 H         138.8531  136.9707  163.7349 H       1  UNL1        0.2108
     30 C         138.6893  139.6900  165.7598 C.3     1  UNL1        0.1063
     31 C         140.6492  140.0920  169.1872 C.3     1  UNL1        0.0216
     32 C         142.0562  139.8231  168.7424 C.3     1  UNL1        0.0032
     33 C         142.3410  139.5098  167.3034 C.3     1  UNL1        0.0174
     34 C         141.2187  139.4654  166.3092 C.3     1  UNL1        0.0722
     35 N         139.8117  139.7344  166.7540 N.3     1  UNL1       -0.2704
     36 C         139.5269  140.0477  168.1931 C.3     1  UNL1        0.0725
     37 C         140.3645  140.4053  170.6263 C.3     1  UNL1        0.0431
     38 O         141.8266  142.2116  171.7880 O.co2   1  UNL1       -0.5492
     39 C         140.5376  141.8047  171.1376 C.2     1  UNL1        0.0504
     40 O         139.4217  142.7974  170.9986 O.co2   1  UNL1       -0.5492
@<TRIPOS>UNITY_ATOM_ATTR
38 1
charge -1
@<TRIPOS>BOND
     1    38    39   ar
     2    39    40   ar
     3    39    37    1
     4    31    37    1
     5    31    32    1
     6    32    33    1
     7    33    34    1
     8    34    35    1
     9    35    30    1
    10    30    27    1
    11    27    28    1
    12    27     1    1
    13     1     2   ar
    14     2     3   ar
    15     3     4   ar
    16     4     7    1
    17     7     8   ar
    18     8     9   ar
    19     9    10   ar
    20    10    12    1
    21    12    13   ar
    22    13    14   ar
    23    14    15   ar
    24    15    17    1
    25    17    18   ar
    26    18    19   ar
    27    19    20   ar
    28    20    21   ar
    29    21    22   ar
    30    15    16   ar
    31    16    23    1
    32    23    24    1
    33    23    25    1
    34    23    26    1
    35    10    11   ar
    36     4     5   ar
    37     5     6   ar
    38    35    36    1
    39    36    31    1
    40     6     1   ar
    41    11     7   ar
    42    16    12   ar
    43    22    17   ar
    44    28    29    1
@<TRIPOS>MOLECULE
*****
 40 44 0 0 0
SMALL
GASTEIGER

@<TRIPOS>ATOM
      1 C         139.2506  143.7068  156.0233 C.ar    1  UNL1        0.0056
      2 C         139.8961  145.0057  156.4056 C.ar    1  UNL1       -0.0018
      3 C         140.2270  145.2845  157.8418 C.ar    1  UNL1        0.0029
      4 C         139.9125  144.2645  158.8957 C.ar    1  UNL1        0.0391
      5 C         139.2670  142.9656  158.5133 C.ar    1  UNL1        0.0029
      6 C         138.9360  142.6868  157.0771 C.ar    1  UNL1       -0.0018
      7 C         140.2434  144.5434  160.3319 C.ar    1  UNL1        0.2037
      8 N         140.2927  145.8959  160.9787 N.ar    1  UNL1       -0.0555
      9 O         140.6629  145.7073  162.4200 O.2     1  UNL1       -0.3291
     10 C         140.8425  144.2381  162.6640 C.ar    1  UNL1        0.2973
     11 N         140.5832  143.5189  161.3734 N.ar    1  UNL1       -0.1843
     12 C         141.2158  143.6003  163.9693 C.ar    1  UNL1        0.2363
     13 O         142.5933  143.1702  164.3784 O.2     1  UNL1       -0.3486
     14 N         142.5059  142.5846  165.7566 N.ar    1  UNL1       -0.0768
     15 C         141.0744  142.6528  166.1993 C.ar    1  UNL1        0.1270
     16 C         140.2770  143.2805  165.0946 C.ar    1  UNL1        0.1340
     17 C         140.5350  142.1769  167.5154 C.ar    1  UNL1        0.0209
     18 C         139.9741  140.7911  167.6392 C.ar    1  UNL1        0.0016
     19 C         139.4347  140.3151  168.9555 C.ar    1  UNL1        0.0000
     20 C         139.4562  141.2248  170.1479 C.ar    1  UNL1        0.0000
     21 C         140.0169  142.6105  170.0242 C.ar    1  UNL1        0.0000
     22 C         140.5564  143.0866  168.7079 C.ar    1  UNL1        0.0016
     23 C         138.8002  143.5425  165.1123 C.3     1  UNL1        0.4232
     24 F         137.3233  143.8044  165.1300 F       1  UNL1       -0.1657
     25 F         139.0591  144.9792  165.4575 F       1  UNL1       -0.1657
     26 F         138.5413  142.1059  164.7672 F       1  UNL1       -0.1657
     27 C         138.9196  143.4279  154.5870 C.3     1  UNL1        0.1486
     28 O         140.0203  143.2823  153.5784 O.3     1  UNL1       -0.3786
     29 H         140.8779  143.3960  154.0170 H       1  UNL1        0.2108
     30 C         137.4881  143.2946  154.1595 C.3     1  UNL1        0.1063
     31 C         134.7538  140.6124  155.1985 C.3     1  UNL1        0.0216
     32 C         135.3555  139.3604  154.6326 C.3     1  UNL1        0.0032
     33 C         136.6680  139.4197  153.9089 C.3     1  UNL1        0.0174
     34 C         137.3789  140.7311  153.7512 C.3     1  UNL1        0.0722
     35 N         136.7772  141.9831  154.3172 N.3     1  UNL1       -0.2704
     36 C         135.4646  141.9238  155.0408 C.3     1  UNL1        0.0725
     37 C         133.4412  140.5531  155.9222 C.3     1  UNL1        0.0431
     38 O         132.0522  138.4570  156.5759 O.co2   1  UNL1       -0.5492
     39 C         133.1582  139.4264  156.8711 C.2     1  UNL1        0.0504
     40 O         133.9812  139.2691  158.1153 O.co2   1  UNL1       -0.5492
@<TRIPOS>UNITY_ATOM_ATTR
38 1
charge -1
@<TRIPOS>BOND
     1    38    39   ar
     2    39    40   ar
     3    39    37    1
     4    31    37    1
     5    31    32    1
     6    32    33    1
     7    33    34    1
     8    34    35    1
     9    35    30    1
    10    30    27    1
    11    27    28    1
    12    27     1    1
    13     1     2   ar
    14     2     3   ar
    15     3     4   ar
    16     4     7    1
    17     7     8   ar
    18     8     9   ar
    19     9    10   ar
    20    10    12    1
    21    12    13   ar
    22    13    14   ar
    23    14    15   ar
    24    15    17    1
    25    17    18   ar
    26    18    19   ar
    27    19    20   ar
    28    20    21   ar
    29    21    22   ar
    30    15    16   ar
    31    16    23    1
    32    23    24    1
    33    23    25    1
    34    23    26    1
    35    10    11   ar
    36     4     5   ar
    37     5     6   ar
    38    35    36    1
    39    36    31    1
    40     6     1   ar
    41    11     7   ar
    42    16    12   ar
    43    22    17   ar
    44    28    29    1
@<TRIPOS>MOLECULE
*****
 40 44 0 0 0
SMALL
GASTEIGER

@<TRIPOS>ATOM
      1 C         140.6491  137.5598  156.9608 C.ar    1  UNL1        0.0056
      2 C         142.1465  137.6370  157.0032 C.ar    1  UNL1       -0.0018
      3 C         142.8344  138.2013  158.2107 C.ar    1  UNL1        0.0029
      4 C         142.0250  138.6884  159.3759 C.ar    1  UNL1        0.0391
      5 C         140.5276  138.6112  159.3335 C.ar    1  UNL1        0.0029
      6 C         139.8397  138.0469  158.1259 C.ar    1  UNL1       -0.0018
      7 C         142.7130  139.2527  160.5835 C.ar    1  UNL1        0.2037
      8 N         144.1857  139.5007  160.7237 N.ar    1  UNL1       -0.0555
      9 O         144.4321  140.0694  162.0897 O.2     1  UNL1       -0.3291
     10 C         143.1116  140.1729  162.7937 C.ar    1  UNL1        0.2973
     11 N         142.0492  139.6681  161.8628 N.ar    1  UNL1       -0.1843
     12 C         142.8920  140.6902  164.1845 C.ar    1  UNL1        0.2363
     13 O         143.3745  142.0046  164.7226 O.2     1  UNL1       -0.3486
     14 N         142.9322  142.1107  166.1520 N.ar    1  UNL1       -0.0768
     15 C         142.1762  140.8620  166.4972 C.ar    1  UNL1        0.1270
     16 C         142.1514  139.9841  165.2812 C.ar    1  UNL1        0.1340
     17 C         141.5543  140.5466  167.8252 C.ar    1  UNL1        0.0209
     18 C         142.4058  140.0362  168.9498 C.ar    1  UNL1        0.0016
     19 C         141.7838  139.7208  170.2779 C.ar    1  UNL1        0.0000
     20 C         140.3106  139.9158  170.4813 C.ar    1  UNL1        0.0000
     21 C         139.4592  140.4262  169.3568 C.ar    1  UNL1        0.0000
     22 C         140.0810  140.7416  168.0287 C.ar    1  UNL1        0.0016
     23 C         141.5003  138.6366  165.1797 C.3     1  UNL1        0.4232
     24 F         140.8492  137.2890  165.0783 F       1  UNL1       -0.1657
     25 F         140.1809  139.2949  164.9038 F       1  UNL1       -0.1657
     26 F         142.8196  137.9784  165.4556 F       1  UNL1       -0.1657
     27 C         139.9611  136.9954  155.7532 C.3     1  UNL1        0.1486
     28 O         138.4759  136.7853  155.7659 O.3     1  UNL1       -0.3786
     29 H         138.1174  137.0633  156.6233 H       1  UNL1        0.2108
     30 C         140.7582  136.6413  154.5329 C.3     1  UNL1        0.1063
     31 C         142.3331  133.1024  155.3968 C.3     1  UNL1        0.0216
     32 C         142.3795  132.4730  154.0361 C.3     1  UNL1        0.0032
     33 C         141.8855  133.2330  152.8410 C.3     1  UNL1        0.0174
     34 C         141.3451  134.6224  153.0065 C.3     1  UNL1        0.0722
     35 N         141.2987  135.2518  154.3673 N.3     1  UNL1       -0.2704
     36 C         141.7927  134.4918  155.5624 C.3     1  UNL1        0.0725
     37 C         142.8271  132.3424  156.5920 C.3     1  UNL1        0.0431
     38 O         145.2509  131.6542  155.9584 O.co2   1  UNL1       -0.5492
     39 C         144.2931  132.3114  156.9076 C.2     1  UNL1        0.0504
     40 O         144.8015  132.9375  158.1723 O.co2   1  UNL1       -0.5492
@<TRIPOS>UNITY_ATOM_ATTR
38 1
charge -1
@<TRIPOS>BOND
     1    38    39   ar
     2    39    40   ar
     3    39    37    1
     4    31    37    1
     5    31    32    1
     6    32    33    1
     7    33    34    1
     8    34    35    1
     9    35    30    1
    10    30    27    1
    11    27    28    1
    12    27     1    1
    13     1     2   ar
    14     2     3   ar
    15     3     4   ar
    16     4     7    1
    17     7     8   ar
    18     8     9   ar
    19     9    10   ar
    20    10    12    1
    21    12    13   ar
    22    13    14   ar
    23    14    15   ar
    24    15    17    1
    25    17    18   ar
    26    18    19   ar
    27    19    20   ar
    28    20    21   ar
    29    21    22   ar
    30    15    16   ar
    31    16    23    1
    32    23    24    1
    33    23    25    1
    34    23    26    1
    35    10    11   ar
    36     4     5   ar
    37     5     6   ar
    38    35    36    1
    39    36    31    1
    40     6     1   ar
    41    11     7   ar
    42    16    12   ar
    43    22    17   ar
    44    28    29    1
