@<TRIPOS>MOLECULE
*****
 42 46 0 0 0
SMALL
GASTEIGER

@<TRIPOS>ATOM
      1 N         142.4208  136.5340  156.2937 N.ar    1  UNL1       -0.2342
      2 N         141.2763  136.8897  157.1957 N.ar    1  UNL1       -0.1679
      3 C         141.4344  138.3253  157.6009 C.ar    1  UNL1        0.1065
      4 C         142.6765  138.8568  156.9492 C.ar    1  UNL1        0.0860
      5 C         143.3312  140.2058  156.9871 C.ar    1  UNL1        0.1316
      6 N         142.7215  141.3129  157.7950 N.pl3   1  UNL1       -0.3425
      7 N         144.5955  140.4478  156.2171 N.ar    1  UNL1       -0.2093
      8 C         145.2051  139.3407  155.4093 C.ar    1  UNL1        0.2014
      9 N         144.5505  137.9917  155.3713 N.ar    1  UNL1       -0.2050
     10 C         143.2862  137.7497  156.1413 C.ar    1  UNL1        0.1653
     11 H         141.8917  141.1541  158.3004 H       1  UNL1        0.1437
     12 H         143.1512  142.1983  157.8199 H       1  UNL1        0.1437
     13 C         144.7033  131.8663  156.3433 C.2     1  UNL1        0.2492
     14 O         145.3696  132.2059  157.6436 O.2     1  UNL1       -0.2699
     15 N         143.7995  132.8633  155.6808 N.am    1  UNL1       -0.2741
     16 C         143.1332  132.5237  154.3805 C.3     1  UNL1        0.0938
     17 C         142.2295  133.5208  153.7180 C.3     1  UNL1        0.0236
     18 C         141.9920  134.8576  154.3557 C.3     1  UNL1        0.0279
     19 C         142.6583  135.1973  155.6559 C.3     1  UNL1        0.1266
     20 C         143.5621  134.2001  156.3185 C.3     1  UNL1        0.1180
     21 C         144.4660  129.2793  156.3852 C.2     1  UNL1        0.0048
     22 C         144.9407  130.5295  155.7056 C.2     1  UNL1        0.0579
     23 C         140.5122  139.0943  158.4998 C.ar    1  UNL1        0.0197
     24 C         139.3892  139.8970  157.9126 C.ar    1  UNL1        0.0016
     25 C         138.4670  140.6661  158.8116 C.ar    1  UNL1        0.0002
     26 C         138.6678  140.6325  160.2977 C.ar    1  UNL1        0.0045
     27 C         139.7907  139.8299  160.8848 C.ar    1  UNL1        0.0537
     28 C         140.7129  139.0608  159.9859 C.ar    1  UNL1        0.0061
     29 C         139.9915  139.7964  162.3710 C.2     1  UNL1        0.2495
     30 O         141.2646  139.2476  162.9436 O.2     1  UNL1       -0.2698
     31 N         138.9191  140.3116  163.2845 N.am    1  UNL1       -0.2804
     32 H         138.0835  140.6718  162.9087 H       1  UNL1        0.1552
     33 C         139.1199  140.2780  164.7706 C.ar    1  UNL1        0.0502
     34 C         138.6333  139.1036  165.5668 C.ar    1  UNL1        0.0143
     35 C         138.8341  139.0701  167.0530 C.ar    1  UNL1       -0.0033
     36 C         139.5214  140.2109  167.7429 C.ar    1  UNL1       -0.0264
     37 C         140.0080  141.3853  166.9467 C.ar    1  UNL1       -0.0246
     38 C         140.6954  142.5262  167.6365 C.3     1  UNL1        0.0307
     39 C         139.8072  141.4189  165.4605 C.ar    1  UNL1        0.0101
     40 C         139.7222  140.1773  169.2290 C.3     1  UNL1        0.0220
     41 C         138.5987  140.5595  170.1464 C.3     1  UNL1        0.0047
     42 C         141.0465  139.7616  169.7977 C.3     1  UNL1        0.0047
@<TRIPOS>BOND
     1    21    22    2
     2    22    13    1
     3    13    14    2
     4    13    15   am
     5    15    16    1
     6    16    17    1
     7    17    18    1
     8    18    19    1
     9    19     1    1
    10     1     2   ar
    11     2     3   ar
    12     3    23    1
    13    23    24   ar
    14    24    25   ar
    15    25    26   ar
    16    26    27   ar
    17    27    29    1
    18    29    30    2
    19    29    31   am
    20    31    33    1
    21    33    34   ar
    22    34    35   ar
    23    35    36   ar
    24    36    40    1
    25    40    41    1
    26    40    42    1
    27    36    37   ar
    28    37    38    1
    29    37    39   ar
    30    27    28   ar
    31     3     4   ar
    32     4     5   ar
    33     5     6    1
    34     5     7   ar
    35     7     8   ar
    36     8     9   ar
    37     9    10   ar
    38    19    20    1
    39    20    15    1
    40    10     1   ar
    41    28    23   ar
    42    10     4   ar
    43    39    33   ar
    44    31    32    1
    45     6    11    1
    46     6    12    1
@<TRIPOS>MOLECULE
*****
 42 46 0 0 0
SMALL
GASTEIGER

@<TRIPOS>ATOM
      1 N         142.1284  136.8313  156.9297 N.ar    1  UNL1       -0.2342
      2 N         142.9343  137.5315  157.9834 N.ar    1  UNL1       -0.1679
      3 C         142.4073  138.9294  158.1174 C.ar    1  UNL1        0.1065
      4 C         141.2757  139.0933  157.1465 C.ar    1  UNL1        0.0860
      5 C         140.3800  140.2557  156.8360 C.ar    1  UNL1        0.1316
      6 N         140.5523  141.5524  157.5700 N.pl3   1  UNL1       -0.3425
      7 N         139.3119  140.1214  155.7914 N.ar    1  UNL1       -0.2093
      8 C         139.1396  138.8246  155.0573 C.ar    1  UNL1        0.2014
      9 N         140.0353  137.6622  155.3678 N.ar    1  UNL1       -0.2050
     10 C         141.1033  137.7966  156.4124 C.ar    1  UNL1        0.1653
     11 H         141.2533  141.6405  158.2556 H       1  UNL1        0.1437
     12 H         139.9644  142.3153  157.3662 H       1  UNL1        0.1437
     13 C         144.5737  132.2631  157.3190 C.2     1  UNL1        0.2492
     14 O         145.4234  132.8122  158.4265 O.2     1  UNL1       -0.2699
     15 N         143.5375  133.1304  156.6680 N.am    1  UNL1       -0.2741
     16 C         142.6878  132.5813  155.5606 C.3     1  UNL1        0.0938
     17 C         141.6517  133.4487  154.9095 C.3     1  UNL1        0.0236
     18 C         141.4652  134.8654  155.3659 C.3     1  UNL1        0.0279
     19 C         142.3149  135.4147  156.4733 C.3     1  UNL1        0.1266
     20 C         143.3511  134.5471  157.1244 C.3     1  UNL1        0.1180
     21 C         144.5156  129.7133  157.8148 C.2     1  UNL1        0.0048
     22 C         144.7601  130.8464  156.8627 C.2     1  UNL1        0.0579
     23 C         142.9215  139.9792  159.0573 C.ar    1  UNL1        0.0197
     24 C         143.9612  140.9564  158.5940 C.ar    1  UNL1        0.0016
     25 C         144.4754  142.0062  159.5339 C.ar    1  UNL1        0.0002
     26 C         143.9501  142.0790  160.9370 C.ar    1  UNL1        0.0045
     27 C         142.9106  141.1019  161.4002 C.ar    1  UNL1        0.0537
     28 C         142.3963  140.0521  160.4603 C.ar    1  UNL1        0.0061
     29 C         142.3853  141.1746  162.8033 C.2     1  UNL1        0.2495
     30 O         141.7303  139.9755  163.4221 O.2     1  UNL1       -0.2698
     31 N         142.5150  142.4466  163.5877 N.am    1  UNL1       -0.2804
     32 H         142.9450  143.2337  163.1817 H       1  UNL1        0.1552
     33 C         141.9897  142.5194  164.9909 C.ar    1  UNL1        0.0502
     34 C         140.5494  142.8592  165.2358 C.ar    1  UNL1        0.0143
     35 C         140.0241  142.9320  166.6389 C.ar    1  UNL1       -0.0033
     36 C         140.9391  142.6649  167.7971 C.ar    1  UNL1       -0.0264
     37 C         142.3794  142.3250  167.5522 C.ar    1  UNL1       -0.0246
     38 C         143.2944  142.0579  168.7104 C.3     1  UNL1        0.0307
     39 C         142.9047  142.2523  166.1491 C.ar    1  UNL1        0.0101
     40 C         140.4138  142.7376  169.2003 C.3     1  UNL1        0.0220
     41 C         139.8617  141.5083  169.8591 C.3     1  UNL1        0.0047
     42 C         140.4405  144.0397  169.9445 C.3     1  UNL1        0.0047
@<TRIPOS>BOND
     1    21    22    2
     2    22    13    1
     3    13    14    2
     4    13    15   am
     5    15    16    1
     6    16    17    1
     7    17    18    1
     8    18    19    1
     9    19     1    1
    10     1     2   ar
    11     2     3   ar
    12     3    23    1
    13    23    24   ar
    14    24    25   ar
    15    25    26   ar
    16    26    27   ar
    17    27    29    1
    18    29    30    2
    19    29    31   am
    20    31    33    1
    21    33    34   ar
    22    34    35   ar
    23    35    36   ar
    24    36    40    1
    25    40    41    1
    26    40    42    1
    27    36    37   ar
    28    37    38    1
    29    37    39   ar
    30    27    28   ar
    31     3     4   ar
    32     4     5   ar
    33     5     6    1
    34     5     7   ar
    35     7     8   ar
    36     8     9   ar
    37     9    10   ar
    38    19    20    1
    39    20    15    1
    40    10     1   ar
    41    28    23   ar
    42    10     4   ar
    43    39    33   ar
    44    31    32    1
    45     6    11    1
    46     6    12    1
@<TRIPOS>MOLECULE
*****
 42 46 0 0 0
SMALL
GASTEIGER

@<TRIPOS>ATOM
      1 N         139.4632  139.6060  159.5061 N.ar    1  UNL1       -0.2342
      2 N         140.7194  138.8399  159.2143 N.ar    1  UNL1       -0.1679
      3 C         140.8079  138.6429  157.7299 C.ar    1  UNL1        0.1065
      4 C         139.6064  139.2873  157.1043 C.ar    1  UNL1        0.0860
      5 C         139.1618  139.4089  155.6770 C.ar    1  UNL1        0.1316
      6 N         139.9928  138.8137  154.5792 N.pl3   1  UNL1       -0.3425
      7 N         137.8861  140.1257  155.3474 N.ar    1  UNL1       -0.2093
      8 C         137.0550  140.7209  156.4451 C.ar    1  UNL1        0.2014
      9 N         137.4996  140.5993  157.8725 N.ar    1  UNL1       -0.2050
     10 C         138.7753  139.8825  158.2021 C.ar    1  UNL1        0.1653
     11 H         140.8301  138.3432  154.7956 H       1  UNL1        0.1437
     12 H         139.7010  138.8935  153.6424 H       1  UNL1        0.1437
     13 C         138.2072  143.3510  162.8821 C.2     1  UNL1        0.2492
     14 O         138.5461  144.3904  161.8551 O.2     1  UNL1       -0.2699
     15 N         138.3517  141.8950  162.5516 N.am    1  UNL1       -0.2741
     16 C         138.0128  140.8556  163.5786 C.3     1  UNL1        0.0938
     17 C         138.1574  139.3996  163.2481 C.3     1  UNL1        0.0236
     18 C         138.6408  138.9831  161.8906 C.3     1  UNL1        0.0279
     19 C         138.9797  140.0225  160.8636 C.3     1  UNL1        0.1266
     20 C         138.8352  141.4785  161.1941 C.3     1  UNL1        0.1180
     21 C         138.5120  144.7572  165.0454 C.2     1  UNL1        0.0048
     22 C         137.7237  143.7675  164.2396 C.2     1  UNL1        0.0579
     23 C         141.9052  137.9273  156.9993 C.ar    1  UNL1        0.0197
     24 C         142.9548  138.7109  156.2683 C.ar    1  UNL1        0.0016
     25 C         144.0521  137.9952  155.5377 C.ar    1  UNL1        0.0002
     26 C         144.0998  136.4960  155.5381 C.ar    1  UNL1        0.0045
     27 C         143.0503  135.7124  156.2692 C.ar    1  UNL1        0.0537
     28 C         141.9530  136.4281  156.9997 C.ar    1  UNL1        0.0061
     29 C         143.0980  134.2132  156.2696 C.2     1  UNL1        0.2495
     30 O         141.8428  133.4227  156.0469 O.2     1  UNL1       -0.2698
     31 N         144.4010  133.5043  156.4927 N.am    1  UNL1       -0.2804
     32 H         145.2248  134.0231  156.6389 H       1  UNL1        0.1552
     33 C         144.4487  132.0051  156.4931 C.ar    1  UNL1        0.0502
     34 C         144.4752  131.2552  155.1943 C.ar    1  UNL1        0.0143
     35 C         144.5230  129.7560  155.1948 C.ar    1  UNL1       -0.0033
     36 C         144.5442  129.0066  156.4940 C.ar    1  UNL1       -0.0264
     37 C         144.5176  129.7565  157.7928 C.ar    1  UNL1       -0.0246
     38 C         144.5388  129.0072  159.0920 C.3     1  UNL1        0.0307
     39 C         144.4699  131.2557  157.7923 C.ar    1  UNL1        0.0101
     40 C         144.5919  127.5073  156.4944 C.3     1  UNL1        0.0220
     41 C         145.9137  126.7990  156.4602 C.3     1  UNL1        0.0047
     42 C         143.3179  126.7164  156.5290 C.3     1  UNL1        0.0047
@<TRIPOS>BOND
     1    21    22    2
     2    22    13    1
     3    13    14    2
     4    13    15   am
     5    15    16    1
     6    16    17    1
     7    17    18    1
     8    18    19    1
     9    19     1    1
    10     1     2   ar
    11     2     3   ar
    12     3    23    1
    13    23    24   ar
    14    24    25   ar
    15    25    26   ar
    16    26    27   ar
    17    27    29    1
    18    29    30    2
    19    29    31   am
    20    31    33    1
    21    33    34   ar
    22    34    35   ar
    23    35    36   ar
    24    36    40    1
    25    40    41    1
    26    40    42    1
    27    36    37   ar
    28    37    38    1
    29    37    39   ar
    30    27    28   ar
    31     3     4   ar
    32     4     5   ar
    33     5     6    1
    34     5     7   ar
    35     7     8   ar
    36     8     9   ar
    37     9    10   ar
    38    19    20    1
    39    20    15    1
    40    10     1   ar
    41    28    23   ar
    42    10     4   ar
    43    39    33   ar
    44    31    32    1
    45     6    11    1
    46     6    12    1
@<TRIPOS>MOLECULE
*****
 42 46 0 0 0
SMALL
GASTEIGER

@<TRIPOS>ATOM
      1 N         141.2250  141.9472  163.9064 N.ar    1  UNL1       -0.2342
      2 N         142.3843  141.6348  163.0074 N.ar    1  UNL1       -0.1679
      3 C         141.9575  141.8951  161.5932 C.ar    1  UNL1        0.1065
      4 C         140.5343  142.3684  161.6181 C.ar    1  UNL1        0.0860
      5 C         139.5922  142.7742  160.5237 C.ar    1  UNL1        0.1316
      6 N         140.0450  142.7420  159.0941 N.pl3   1  UNL1       -0.3425
      7 N         138.1974  143.2122  160.8590 N.ar    1  UNL1       -0.2093
      8 C         137.7446  143.2444  162.2887 C.ar    1  UNL1        0.2014
      9 N         138.6867  142.8386  163.3831 N.ar    1  UNL1       -0.2050
     10 C         140.0816  142.4006  163.0478 C.ar    1  UNL1        0.1653
     11 H         140.9605  142.4545  158.8740 H       1  UNL1        0.1437
     12 H         139.4266  143.0083  158.3758 H       1  UNL1        0.1437
     13 C         142.6543  139.4512  168.2339 C.2     1  UNL1        0.2492
     14 O         143.3963  138.4431  167.4074 O.2     1  UNL1       -0.2699
     15 N         141.9260  140.5793  167.5653 N.am    1  UNL1       -0.2741
     16 C         141.1840  141.5874  168.3919 C.3     1  UNL1        0.0938
     17 C         140.4557  142.7154  167.7232 C.3     1  UNL1        0.0236
     18 C         140.4694  142.8353  166.2281 C.3     1  UNL1        0.0279
     19 C         141.2113  141.8273  165.4015 C.3     1  UNL1        0.1266
     20 C         141.9396  140.6992  166.0702 C.3     1  UNL1        0.1180
     21 C         143.0244  138.0360  170.3811 C.2     1  UNL1        0.0048
     22 C         142.6406  139.3313  169.7290 C.2     1  UNL1        0.0579
     23 C         142.8050  141.7139  160.3689 C.ar    1  UNL1        0.0197
     24 C         143.8208  142.7539  159.9992 C.ar    1  UNL1        0.0016
     25 C         144.6684  142.5727  158.7749 C.ar    1  UNL1        0.0002
     26 C         144.5001  141.3516  157.9203 C.ar    1  UNL1        0.0045
     27 C         143.4844  140.3116  158.2899 C.ar    1  UNL1        0.0537
     28 C         142.6368  140.4928  159.5142 C.ar    1  UNL1        0.0061
     29 C         143.3161  139.0904  157.4353 C.2     1  UNL1        0.2495
     30 O         144.1752  138.9011  156.2204 O.2     1  UNL1       -0.2698
     31 N         142.2887  138.0586  157.7955 N.am    1  UNL1       -0.2804
     32 H         141.7249  138.1828  158.5929 H       1  UNL1        0.1552
     33 C         142.1205  136.8374  156.9409 C.ar    1  UNL1        0.0502
     34 C         140.9762  136.7498  155.9751 C.ar    1  UNL1        0.0143
     35 C         140.8079  135.5286  155.1204 C.ar    1  UNL1       -0.0033
     36 C         141.7840  134.3951  155.2315 C.ar    1  UNL1       -0.0264
     37 C         142.9283  134.4827  156.1974 C.ar    1  UNL1       -0.0246
     38 C         143.9044  133.3492  156.3085 C.3     1  UNL1        0.0307
     39 C         143.0965  135.7039  157.0520 C.ar    1  UNL1        0.0101
     40 C         141.6157  133.1739  154.3769 C.3     1  UNL1        0.0220
     41 C         142.1479  133.1608  152.9745 C.3     1  UNL1        0.0047
     42 C         140.9153  131.9658  154.9246 C.3     1  UNL1        0.0047
@<TRIPOS>BOND
     1    21    22    2
     2    22    13    1
     3    13    14    2
     4    13    15   am
     5    15    16    1
     6    16    17    1
     7    17    18    1
     8    18    19    1
     9    19     1    1
    10     1     2   ar
    11     2     3   ar
    12     3    23    1
    13    23    24   ar
    14    24    25   ar
    15    25    26   ar
    16    26    27   ar
    17    27    29    1
    18    29    30    2
    19    29    31   am
    20    31    33    1
    21    33    34   ar
    22    34    35   ar
    23    35    36   ar
    24    36    40    1
    25    40    41    1
    26    40    42    1
    27    36    37   ar
    28    37    38    1
    29    37    39   ar
    30    27    28   ar
    31     3     4   ar
    32     4     5   ar
    33     5     6    1
    34     5     7   ar
    35     7     8   ar
    36     8     9   ar
    37     9    10   ar
    38    19    20    1
    39    20    15    1
    40    10     1   ar
    41    28    23   ar
    42    10     4   ar
    43    39    33   ar
    44    31    32    1
    45     6    11    1
    46     6    12    1
@<TRIPOS>MOLECULE
*****
 42 46 0 0 0
SMALL
GASTEIGER

@<TRIPOS>ATOM
      1 N         142.1931  142.2960  163.1300 N.ar    1  UNL1       -0.2342
      2 N         143.0057  141.5313  162.1276 N.ar    1  UNL1       -0.1679
      3 C         142.6403  142.0269  160.7598 C.ar    1  UNL1        0.1065
      4 C         141.6018  143.0978  160.9168 C.ar    1  UNL1        0.0860
      5 C         140.8721  143.9430  159.9153 C.ar    1  UNL1        0.1316
      6 N         141.1485  143.7767  158.4503 N.pl3   1  UNL1       -0.3425
      7 N         139.8661  144.9545  160.3786 N.ar    1  UNL1       -0.2093
      8 C         139.5897  145.1208  161.8435 C.ar    1  UNL1        0.2014
      9 N         140.3194  144.2756  162.8451 N.ar    1  UNL1       -0.2050
     10 C         141.3254  143.2641  162.3818 C.ar    1  UNL1        0.1653
     11 H         141.8088  143.1127  158.1463 H       1  UNL1        0.1437
     12 H         140.6696  144.3314  157.7930 H       1  UNL1        0.1437
     13 C         140.0880  140.4724  167.5167 C.2     1  UNL1        0.2492
     14 O         138.9419  139.9067  166.7315 O.2     1  UNL1       -0.2699
     15 N         141.1873  141.2111  166.8126 N.am    1  UNL1       -0.2741
     16 C         142.3334  141.7768  167.5978 C.3     1  UNL1        0.0938
     17 C         143.4327  142.5155  166.8937 C.3     1  UNL1        0.0236
     18 C         143.3859  142.6886  165.4044 C.3     1  UNL1        0.0279
     19 C         142.2399  142.1229  164.6192 C.3     1  UNL1        0.1266
     20 C         141.1405  141.3842  165.3234 C.3     1  UNL1        0.1180
     21 C         138.8707  140.3758  169.8100 C.2     1  UNL1        0.0048
     22 C         140.1348  140.2993  169.0059 C.2     1  UNL1        0.0579
     23 C         143.2128  141.5374  159.4626 C.ar    1  UNL1        0.0197
     24 C         144.2092  142.3764  158.7185 C.ar    1  UNL1        0.0016
     25 C         144.7817  141.8869  157.4213 C.ar    1  UNL1        0.0002
     26 C         144.3579  140.5586  156.8682 C.ar    1  UNL1        0.0045
     27 C         143.3616  139.7198  157.6122 C.ar    1  UNL1        0.0537
     28 C         142.7890  140.2092  158.9094 C.ar    1  UNL1        0.0061
     29 C         142.9377  138.3914  157.0591 C.2     1  UNL1        0.2495
     30 O         141.5581  137.8705  157.3332 O.2     1  UNL1       -0.2698
     31 N         143.8936  137.5840  156.2318 N.am    1  UNL1       -0.2804
     32 H         144.7991  137.9259  156.0518 H       1  UNL1        0.1552
     33 C         143.4698  136.2557  155.6786 C.ar    1  UNL1        0.0502
     34 C         143.7832  134.9959  156.4300 C.ar    1  UNL1        0.0143
     35 C         143.3594  133.6676  155.8769 C.ar    1  UNL1       -0.0033
     36 C         142.6222  133.5990  154.5724 C.ar    1  UNL1       -0.0264
     37 C         142.3088  134.8589  153.8210 C.ar    1  UNL1       -0.0246
     38 C         141.5716  134.7904  152.5164 C.3     1  UNL1        0.0307
     39 C         142.7326  136.1872  154.3741 C.ar    1  UNL1        0.0101
     40 C         142.1984  132.2707  154.0192 C.3     1  UNL1        0.0220
     41 C         140.8778  131.6800  154.4157 C.3     1  UNL1        0.0047
     42 C         143.0951  131.5331  153.0696 C.3     1  UNL1        0.0047
@<TRIPOS>BOND
     1    21    22    2
     2    22    13    1
     3    13    14    2
     4    13    15   am
     5    15    16    1
     6    16    17    1
     7    17    18    1
     8    18    19    1
     9    19     1    1
    10     1     2   ar
    11     2     3   ar
    12     3    23    1
    13    23    24   ar
    14    24    25   ar
    15    25    26   ar
    16    26    27   ar
    17    27    29    1
    18    29    30    2
    19    29    31   am
    20    31    33    1
    21    33    34   ar
    22    34    35   ar
    23    35    36   ar
    24    36    40    1
    25    40    41    1
    26    40    42    1
    27    36    37   ar
    28    37    38    1
    29    37    39   ar
    30    27    28   ar
    31     3     4   ar
    32     4     5   ar
    33     5     6    1
    34     5     7   ar
    35     7     8   ar
    36     8     9   ar
    37     9    10   ar
    38    19    20    1
    39    20    15    1
    40    10     1   ar
    41    28    23   ar
    42    10     4   ar
    43    39    33   ar
    44    31    32    1
    45     6    11    1
    46     6    12    1
@<TRIPOS>MOLECULE
*****
 42 46 0 0 0
SMALL
GASTEIGER

@<TRIPOS>ATOM
      1 N         141.5018  139.5479  162.6850 N.ar    1  UNL1       -0.2342
      2 N         142.4718  139.3389  161.5601 N.ar    1  UNL1       -0.1679
      3 C         141.6885  139.2421  160.2845 C.ar    1  UNL1        0.1065
      4 C         140.2344  139.3912  160.6211 C.ar    1  UNL1        0.0860
      5 C         139.0004  139.3794  159.7683 C.ar    1  UNL1        0.1316
      6 N         139.1158  139.1904  158.2847 N.pl3   1  UNL1       -0.3425
      7 N         137.6511  139.5564  160.3991 N.ar    1  UNL1       -0.2093
      8 C         137.5357  139.7454  161.8827 C.ar    1  UNL1        0.2014
      9 N         138.7696  139.7572  162.7354 N.ar    1  UNL1       -0.2050
     10 C         140.1190  139.5802  162.1046 C.ar    1  UNL1        0.1653
     11 H         140.0015  139.0742  157.8707 H       1  UNL1        0.1437
     12 H         138.3060  139.1826  157.7250 H       1  UNL1        0.1437
     13 C         141.2051  142.2163  167.1337 C.2     1  UNL1        0.2492
     14 O         140.3546  143.2501  166.4569 O.2     1  UNL1       -0.2699
     15 N         141.7046  141.0324  166.3600 N.am    1  UNL1       -0.2741
     16 C         142.5551  139.9986  167.0367 C.3     1  UNL1        0.0938
     17 C         143.0545  138.8147  166.2629 C.3     1  UNL1        0.0236
     18 C         142.7034  138.6644  164.8123 C.3     1  UNL1        0.0279
     19 C         141.8529  139.6981  164.1355 C.3     1  UNL1        0.1266
     20 C         141.3535  140.8821  164.9094 C.3     1  UNL1        0.1180
     21 C         140.5326  142.0658  169.6388 C.2     1  UNL1        0.0048
     22 C         141.5562  142.3666  168.5843 C.2     1  UNL1        0.0579
     23 C         142.2591  139.0330  158.9132 C.ar    1  UNL1        0.0197
     24 C         142.5743  140.2141  158.0438 C.ar    1  UNL1        0.0016
     25 C         143.1450  140.0049  156.6724 C.ar    1  UNL1        0.0002
     26 C         143.4004  138.6147  156.1704 C.ar    1  UNL1        0.0045
     27 C         143.0851  137.4337  157.0397 C.ar    1  UNL1        0.0537
     28 C         142.5145  137.6429  158.4111 C.ar    1  UNL1        0.0061
     29 C         143.3405  136.0435  156.5377 C.2     1  UNL1        0.2495
     30 O         143.8291  135.8303  155.1356 O.2     1  UNL1       -0.2698
     31 N         143.1074  134.8664  157.4377 N.am    1  UNL1       -0.2804
     32 H         142.7867  135.0062  158.3579 H       1  UNL1        0.1552
     33 C         143.3628  133.4762  156.9356 C.ar    1  UNL1        0.0502
     34 C         144.6676  132.7989  157.2338 C.ar    1  UNL1        0.0143
     35 C         144.9229  131.4087  156.7318 C.ar    1  UNL1       -0.0033
     36 C         143.8736  130.6957  155.9316 C.ar    1  UNL1       -0.0264
     37 C         142.5688  131.3729  155.6334 C.ar    1  UNL1       -0.0246
     38 C         141.5194  130.6599  154.8331 C.3     1  UNL1        0.0307
     39 C         142.3134  132.7631  156.1354 C.ar    1  UNL1        0.0101
     40 C         144.1290  129.3054  155.4295 C.3     1  UNL1        0.0220
     41 C         143.7498  128.1228  156.2706 C.3     1  UNL1        0.0047
     42 C         144.7637  129.0979  154.0863 C.3     1  UNL1        0.0047
@<TRIPOS>BOND
     1    21    22    2
     2    22    13    1
     3    13    14    2
     4    13    15   am
     5    15    16    1
     6    16    17    1
     7    17    18    1
     8    18    19    1
     9    19     1    1
    10     1     2   ar
    11     2     3   ar
    12     3    23    1
    13    23    24   ar
    14    24    25   ar
    15    25    26   ar
    16    26    27   ar
    17    27    29    1
    18    29    30    2
    19    29    31   am
    20    31    33    1
    21    33    34   ar
    22    34    35   ar
    23    35    36   ar
    24    36    40    1
    25    40    41    1
    26    40    42    1
    27    36    37   ar
    28    37    38    1
    29    37    39   ar
    30    27    28   ar
    31     3     4   ar
    32     4     5   ar
    33     5     6    1
    34     5     7   ar
    35     7     8   ar
    36     8     9   ar
    37     9    10   ar
    38    19    20    1
    39    20    15    1
    40    10     1   ar
    41    28    23   ar
    42    10     4   ar
    43    39    33   ar
    44    31    32    1
    45     6    11    1
    46     6    12    1
@<TRIPOS>MOLECULE
*****
 42 46 0 0 0
SMALL
GASTEIGER

@<TRIPOS>ATOM
      1 N         138.3747  142.4879  156.4965 N.ar    1  UNL1       -0.2342
      2 N         139.3426  141.7874  157.4034 N.ar    1  UNL1       -0.1679
      3 C         140.3987  142.7740  157.8048 C.ar    1  UNL1        0.1065
      4 C         140.0836  144.0842  157.1461 C.ar    1  UNL1        0.0860
      5 C         140.7741  145.4154  157.1780 C.ar    1  UNL1        0.1316
      6 N         142.0250  145.5922  157.9867 N.pl3   1  UNL1       -0.3425
      7 N         140.2136  146.5698  156.4014 N.ar    1  UNL1       -0.2093
      8 C         138.9627  146.3930  155.5928 C.ar    1  UNL1        0.2014
      9 N         138.2722  145.0618  155.5608 N.ar    1  UNL1       -0.2050
     10 C         138.8326  143.9074  156.3374 C.ar    1  UNL1        0.1653
     11 H         142.3929  144.8345  158.4964 H       1  UNL1        0.1437
     12 H         142.4782  146.4659  158.0076 H       1  UNL1        0.1437
     13 C         134.0257  139.6710  156.8861 C.2     1  UNL1        0.2492
     14 O         134.2771  139.4857  158.3532 O.2     1  UNL1       -0.2699
     15 N         134.9872  140.4678  156.0551 N.am    1  UNL1       -0.2741
     16 C         134.7358  140.6530  154.5880 C.3     1  UNL1        0.0938
     17 C         135.6974  141.4499  153.7570 C.3     1  UNL1        0.0236
     18 C         136.9103  142.0615  154.3932 C.3     1  UNL1        0.0279
     19 C         137.1617  141.8763  155.8603 C.3     1  UNL1        0.1266
     20 C         136.2002  141.0794  156.6913 C.3     1  UNL1        0.1180
     21 C         131.5964  138.7701  157.0787 C.2     1  UNL1        0.0048
     22 C         132.8128  139.0594  156.2499 C.2     1  UNL1        0.0579
     23 C         141.5652  142.4987  158.7068 C.ar    1  UNL1        0.0197
     24 C         142.8821  142.0796  158.1231 C.ar    1  UNL1        0.0016
     25 C         144.0486  141.8043  159.0250 C.ar    1  UNL1        0.0002
     26 C         143.8984  141.9481  160.5105 C.ar    1  UNL1        0.0045
     27 C         142.5816  142.3671  161.0941 C.ar    1  UNL1        0.0537
     28 C         141.4151  142.6424  160.1922 C.ar    1  UNL1        0.0061
     29 C         142.4314  142.5108  162.5796 C.2     1  UNL1        0.2495
     30 O         143.2891  143.4867  163.3293 O.2     1  UNL1       -0.2698
     31 N         141.4235  141.6787  163.3156 N.am    1  UNL1       -0.2804
     32 H         140.8605  141.0382  162.8236 H       1  UNL1        0.1552
     33 C         141.2733  141.8224  164.8011 C.ar    1  UNL1        0.0502
     34 C         140.3802  142.8875  165.3650 C.ar    1  UNL1        0.0143
     35 C         140.2300  143.0312  166.8506 C.ar    1  UNL1       -0.0033
     36 C         140.9729  142.1100  167.7722 C.ar    1  UNL1       -0.0264
     37 C         141.8660  141.0450  167.2082 C.ar    1  UNL1       -0.0246
     38 C         142.6089  140.1237  168.1298 C.3     1  UNL1        0.0307
     39 C         142.0162  140.9012  165.7227 C.ar    1  UNL1        0.0101
     40 C         140.8227  142.2537  169.2577 C.3     1  UNL1        0.0220
     41 C         139.7506  141.4930  169.9802 C.3     1  UNL1        0.0047
     42 C         141.7445  143.1582  170.0207 C.3     1  UNL1        0.0047
@<TRIPOS>BOND
     1    21    22    2
     2    22    13    1
     3    13    14    2
     4    13    15   am
     5    15    16    1
     6    16    17    1
     7    17    18    1
     8    18    19    1
     9    19     1    1
    10     1     2   ar
    11     2     3   ar
    12     3    23    1
    13    23    24   ar
    14    24    25   ar
    15    25    26   ar
    16    26    27   ar
    17    27    29    1
    18    29    30    2
    19    29    31   am
    20    31    33    1
    21    33    34   ar
    22    34    35   ar
    23    35    36   ar
    24    36    40    1
    25    40    41    1
    26    40    42    1
    27    36    37   ar
    28    37    38    1
    29    37    39   ar
    30    27    28   ar
    31     3     4   ar
    32     4     5   ar
    33     5     6    1
    34     5     7   ar
    35     7     8   ar
    36     8     9   ar
    37     9    10   ar
    38    19    20    1
    39    20    15    1
    40    10     1   ar
    41    28    23   ar
    42    10     4   ar
    43    39    33   ar
    44    31    32    1
    45     6    11    1
    46     6    12    1
@<TRIPOS>MOLECULE
*****
 42 46 0 0 0
SMALL
GASTEIGER

@<TRIPOS>ATOM
      1 N         137.3468  141.6804  156.5034 N.ar    1  UNL1       -0.2342
      2 N         137.6444  142.4751  157.7403 N.ar    1  UNL1       -0.1679
      3 C         139.1325  142.6338  157.8423 C.ar    1  UNL1        0.1065
      4 C         139.7545  141.9372  156.6685 C.ar    1  UNL1        0.0860
      5 C         141.1833  141.7632  156.2462 C.ar    1  UNL1        0.1316
      6 N         142.2870  142.3524  157.0737 N.pl3   1  UNL1       -0.3425
      7 N         141.5084  141.0001  154.9965 N.ar    1  UNL1       -0.2093
      8 C         140.4047  140.4109  154.1690 C.ar    1  UNL1        0.2014
      9 N         138.9760  140.5848  154.5913 N.ar    1  UNL1       -0.2050
     10 C         138.6509  141.3479  155.8410 C.ar    1  UNL1        0.1653
     11 H         142.0736  142.8533  157.8940 H       1  UNL1        0.1437
     12 H         143.2247  142.2383  156.7966 H       1  UNL1        0.1437
     13 C         132.9449  138.9909  157.1282 C.2     1  UNL1        0.2492
     14 O         133.4691  138.4326  158.4180 O.2     1  UNL1       -0.2699
     15 N         133.7832  139.9425  156.3271 N.am    1  UNL1       -0.2741
     16 C         133.2590  140.5008  155.0373 C.3     1  UNL1        0.0938
     17 C         134.0974  141.4523  154.2363 C.3     1  UNL1        0.0236
     18 C         135.4600  141.8455  154.7250 C.3     1  UNL1        0.0279
     19 C         135.9842  141.2872  156.0147 C.3     1  UNL1        0.1266
     20 C         135.1458  140.3357  156.8158 C.3     1  UNL1        0.1180
     21 C         130.3645  139.2908  157.1751 C.2     1  UNL1        0.0048
     22 C         131.5823  138.5978  156.6395 C.2     1  UNL1        0.0579
     23 C         139.8693  143.3613  158.9276 C.ar    1  UNL1        0.0197
     24 C         140.4886  144.6985  158.6473 C.ar    1  UNL1        0.0016
     25 C         141.2254  145.4261  159.7326 C.ar    1  UNL1        0.0002
     26 C         141.3428  144.8165  161.0981 C.ar    1  UNL1        0.0045
     27 C         140.7235  143.4794  161.3783 C.ar    1  UNL1        0.0537
     28 C         139.9867  142.7518  160.2931 C.ar    1  UNL1        0.0061
     29 C         140.8409  142.8698  162.7439 C.2     1  UNL1        0.2495
     30 O         142.1487  142.2918  163.1973 O.2     1  UNL1       -0.2698
     31 N         139.6506  142.8383  163.6560 N.am    1  UNL1       -0.2804
     32 H         138.7922  143.2177  163.3585 H       1  UNL1        0.1552
     33 C         139.7680  142.2287  165.0216 C.ar    1  UNL1        0.0502
     34 C         140.5270  142.9442  166.0996 C.ar    1  UNL1        0.0143
     35 C         140.6444  142.3347  167.4651 C.ar    1  UNL1       -0.0033
     36 C         140.0030  141.0096  167.7527 C.ar    1  UNL1       -0.0264
     37 C         139.2440  140.2942  166.6747 C.ar    1  UNL1       -0.0246
     38 C         138.6025  138.9691  166.9622 C.3     1  UNL1        0.0307
     39 C         139.1266  140.9037  165.3091 C.ar    1  UNL1        0.0101
     40 C         140.1204  140.4001  169.1182 C.3     1  UNL1        0.0220
     41 C         138.9726  140.4876  170.0798 C.3     1  UNL1        0.0047
     42 C         141.3857  139.7030  169.5220 C.3     1  UNL1        0.0047
@<TRIPOS>BOND
     1    21    22    2
     2    22    13    1
     3    13    14    2
     4    13    15   am
     5    15    16    1
     6    16    17    1
     7    17    18    1
     8    18    19    1
     9    19     1    1
    10     1     2   ar
    11     2     3   ar
    12     3    23    1
    13    23    24   ar
    14    24    25   ar
    15    25    26   ar
    16    26    27   ar
    17    27    29    1
    18    29    30    2
    19    29    31   am
    20    31    33    1
    21    33    34   ar
    22    34    35   ar
    23    35    36   ar
    24    36    40    1
    25    40    41    1
    26    40    42    1
    27    36    37   ar
    28    37    38    1
    29    37    39   ar
    30    27    28   ar
    31     3     4   ar
    32     4     5   ar
    33     5     6    1
    34     5     7   ar
    35     7     8   ar
    36     8     9   ar
    37     9    10   ar
    38    19    20    1
    39    20    15    1
    40    10     1   ar
    41    28    23   ar
    42    10     4   ar
    43    39    33   ar
    44    31    32    1
    45     6    11    1
    46     6    12    1
@<TRIPOS>MOLECULE
*****
 42 46 0 0 0
SMALL
GASTEIGER

@<TRIPOS>ATOM
      1 N         139.7727  141.0654  157.0901 N.ar    1  UNL1       -0.2342
      2 N         140.4128  141.9682  158.1026 N.ar    1  UNL1       -0.1679
      3 C         141.5456  141.2199  158.7403 C.ar    1  UNL1        0.1065
      4 C         141.6057  139.8546  158.1219 C.ar    1  UNL1        0.0860
      5 C         142.5166  138.6861  158.3558 C.ar    1  UNL1        0.1316
      6 N         143.6123  138.7816  159.3757 N.pl3   1  UNL1       -0.3425
      7 N         142.3317  137.4220  157.5697 N.ar    1  UNL1       -0.2093
      8 C         141.2359  137.3265  156.5498 C.ar    1  UNL1        0.2014
      9 N         140.3251  138.4951  156.3160 N.ar    1  UNL1       -0.2050
     10 C         140.5099  139.7591  157.1020 C.ar    1  UNL1        0.1653
     11 H         143.7337  139.6112  159.8916 H       1  UNL1        0.1437
     12 H         144.2102  138.0146  159.5292 H       1  UNL1        0.1437
     13 C         134.6986  140.7122  156.0275 C.2     1  UNL1        0.2492
     14 O         134.5049  139.8494  157.2391 O.2     1  UNL1       -0.2699
     15 N         136.0639  141.2320  155.6873 N.am    1  UNL1       -0.2741
     16 C         136.2576  142.0948  154.4757 C.3     1  UNL1        0.0938
     17 C         137.6230  142.6145  154.1356 C.3     1  UNL1        0.0236
     18 C         138.7946  142.2714  155.0071 C.3     1  UNL1        0.0279
     19 C         138.6010  141.4085  156.2186 C.3     1  UNL1        0.1266
     20 C         137.2356  140.8888  156.5588 C.3     1  UNL1        0.1180
     21 C         132.1340  140.9772  155.7071 C.2     1  UNL1        0.0048
     22 C         133.5270  141.0554  155.1560 C.2     1  UNL1        0.0579
     23 C         142.4582  141.7447  159.8088 C.ar    1  UNL1        0.0197
     24 C         143.8599  142.1530  159.4640 C.ar    1  UNL1        0.0016
     25 C         144.7725  142.6778  160.5325 C.ar    1  UNL1        0.0002
     26 C         144.2836  142.7944  161.9458 C.ar    1  UNL1        0.0045
     27 C         142.8820  142.3862  162.2905 C.ar    1  UNL1        0.0537
     28 C         141.9694  141.8614  161.2220 C.ar    1  UNL1        0.0061
     29 C         142.3930  142.5028  163.7038 C.2     1  UNL1        0.2495
     30 O         141.8139  143.7972  164.1927 O.2     1  UNL1       -0.2698
     31 N         142.4831  141.3249  164.6282 N.am    1  UNL1       -0.2804
     32 H         142.8632  140.4753  164.3073 H       1  UNL1        0.1552
     33 C         141.9942  141.4415  166.0414 C.ar    1  UNL1        0.0502
     34 C         140.5882  141.0463  166.3836 C.ar    1  UNL1        0.0143
     35 C         140.0992  141.1629  167.7969 C.ar    1  UNL1       -0.0033
     36 C         141.0161  141.6746  168.8680 C.ar    1  UNL1       -0.0264
     37 C         142.4221  142.0699  168.5258 C.ar    1  UNL1       -0.0246
     38 C         143.3391  142.5817  169.5968 C.3     1  UNL1        0.0307
     39 C         142.9111  141.9533  167.1125 C.ar    1  UNL1        0.0101
     40 C         140.5272  141.7912  170.2813 C.3     1  UNL1        0.0220
     41 C         140.7512  140.6661  171.2476 C.3     1  UNL1        0.0047
     42 C         139.8142  143.0330  170.7281 C.3     1  UNL1        0.0047
@<TRIPOS>BOND
     1    21    22    2
     2    22    13    1
     3    13    14    2
     4    13    15   am
     5    15    16    1
     6    16    17    1
     7    17    18    1
     8    18    19    1
     9    19     1    1
    10     1     2   ar
    11     2     3   ar
    12     3    23    1
    13    23    24   ar
    14    24    25   ar
    15    25    26   ar
    16    26    27   ar
    17    27    29    1
    18    29    30    2
    19    29    31   am
    20    31    33    1
    21    33    34   ar
    22    34    35   ar
    23    35    36   ar
    24    36    40    1
    25    40    41    1
    26    40    42    1
    27    36    37   ar
    28    37    38    1
    29    37    39   ar
    30    27    28   ar
    31     3     4   ar
    32     4     5   ar
    33     5     6    1
    34     5     7   ar
    35     7     8   ar
    36     8     9   ar
    37     9    10   ar
    38    19    20    1
    39    20    15    1
    40    10     1   ar
    41    28    23   ar
    42    10     4   ar
    43    39    33   ar
    44    31    32    1
    45     6    11    1
    46     6    12    1
