@<TRIPOS>MOLECULE
*****
 40 44 0 0 0
SMALL
GASTEIGER

@<TRIPOS>ATOM
      1 N         143.7860  142.0569  165.4504 N.pl3   1  UNL1       -0.3093
      2 H         143.9318  142.9337  165.0270 H       1  UNL1        0.1487
      3 N         143.5395  143.6814  170.9934 N.am    1  UNL1       -0.3097
      4 C         142.4590  142.7585  170.5128 C.2     1  UNL1        0.3328
      5 O         141.3863  142.3036  171.4573 O.2     1  UNL1       -0.2479
      6 N         142.4515  142.2905  169.0877 N.ar    1  UNL1       -0.1812
      7 N         143.4528  142.6589  168.0334 N.ar    1  UNL1       -0.1466
      8 C         143.0614  141.9680  166.7608 C.ar    1  UNL1        0.1505
      9 C         141.8182  141.1726  167.0286 C.ar    1  UNL1        0.0509
     10 C         140.9807  140.2925  166.1488 C.ar    1  UNL1        0.0082
     11 C         139.7663  139.6118  166.7071 C.ar    1  UNL1        0.0716
     12 C         139.3893  139.8111  168.1452 C.ar    1  UNL1        0.0054
     13 C         140.2268  140.6911  169.0250 C.ar    1  UNL1        0.0193
     14 C         141.4412  141.3719  168.4667 C.ar    1  UNL1        0.0899
     15 H         143.5445  143.9885  171.9288 H       1  UNL1        0.1467
     16 H         144.2437  143.9799  170.3735 H       1  UNL1        0.1467
     17 C         138.9287  138.7317  165.8272 C.3     1  UNL1        0.4186
     18 F         138.0912  137.8517  164.9474 F       1  UNL1       -0.1659
     19 F         140.1594  138.3030  165.0846 F       1  UNL1       -0.1659
     20 F         137.6980  139.1605  166.5699 F       1  UNL1       -0.1659
     21 C         144.2884  140.8098  164.7851 C.3     1  UNL1        0.1747
     22 C         143.6987  140.3670  163.4788 C.2     1  UNL1        0.2425
     23 O         142.3788  140.9178  163.0267 O.2     1  UNL1       -0.2733
     24 N         144.4291  139.3735  162.6248 N.am    1  UNL1       -0.3018
     25 H         145.2954  139.0120  162.9216 H       1  UNL1        0.1495
     26 C         143.8394  138.9307  161.3186 C.3     1  UNL1        0.1035
     27 C         143.8313  139.4735  159.9202 C.3     1  UNL1        0.0933
     28 N         143.0056  138.3045  159.4712 N.3     1  UNL1       -0.2711
     29 C         143.0137  137.7617  160.8696 C.3     1  UNL1        0.0933
     30 C         142.4159  137.8617  158.1650 C.3     1  UNL1        0.0576
     31 C         142.9002  136.6008  157.5126 C.3     1  UNL1        0.0164
     32 C         142.3106  136.1580  156.2064 C.3     1  UNL1        0.0078
     33 C         141.2366  136.9760  155.5525 C.3     1  UNL1        0.0466
     34 C         140.7523  138.2369  156.2050 C.3     1  UNL1        0.0078
     35 C         141.3420  138.6797  157.5112 C.3     1  UNL1        0.0164
     36 C         140.6471  136.5331  154.2464 C.ar    1  UNL1        0.0879
     37 N         139.3459  136.9991  153.6632 N.ar    1  UNL1       -0.2412
     38 C         139.1498  136.3005  152.3504 C.ar    1  UNL1        0.1060
     39 C         140.3296  135.4028  152.1221 C.ar    1  UNL1        0.0572
     40 S         141.2550  135.5465  153.2939 S.2     1  UNL1       -0.0702
@<TRIPOS>BOND
     1     3     4   am
     2     4     5    2
     3     4     6   am
     4     6     7   ar
     5     7     8   ar
     6     8     1    1
     7     1    21    1
     8    21    22    1
     9    22    23    2
    10    22    24   am
    11    24    26    1
    12    26    27    1
    13    27    28    1
    14    30    28    1
    15    30    31    1
    16    31    32    1
    17    32    33    1
    18    33    36    1
    19    36    37   ar
    20    37    38   ar
    21    38    39   ar
    22    39    40   ar
    23    33    34    1
    24    34    35    1
    25    28    29    1
    26     8     9   ar
    27     9    10   ar
    28    10    11   ar
    29    11    17    1
    30    17    18    1
    31    17    19    1
    32    17    20    1
    33    11    12   ar
    34    12    13   ar
    35    13    14   ar
    36    14     6   ar
    37    29    26    1
    38    14     9   ar
    39    35    30    1
    40    40    36   ar
    41     3    15    1
    42     3    16    1
    43     1     2    1
    44    24    25    1
@<TRIPOS>MOLECULE
*****
 40 44 0 0 0
SMALL
GASTEIGER

@<TRIPOS>ATOM
      1 N         139.2577  139.4136  165.6113 N.pl3   1  UNL1       -0.3093
      2 H         139.5601  138.5937  165.1579 H       1  UNL1        0.1487
      3 N         139.4713  139.3512  171.3884 N.am    1  UNL1       -0.3097
      4 C         140.5207  140.1589  170.6837 C.2     1  UNL1        0.3328
      5 O         141.5563  140.8987  171.4775 O.2     1  UNL1       -0.2479
      6 N         140.5346  140.2265  169.1853 N.ar    1  UNL1       -0.1812
      7 N         139.5688  139.5435  168.2629 N.ar    1  UNL1       -0.1466
      8 C         139.9540  139.8839  166.8538 C.ar    1  UNL1        0.1505
      9 C         141.1578  140.7774  166.9052 C.ar    1  UNL1        0.0509
     10 C         141.9736  141.4255  165.8262 C.ar    1  UNL1        0.0082
     11 C         143.1481  142.2853  166.1881 C.ar    1  UNL1        0.0716
     12 C         143.5070  142.4970  167.6290 C.ar    1  UNL1        0.0054
     13 C         142.6912  141.8489  168.7081 C.ar    1  UNL1        0.0193
     14 C         141.5166  140.9891  168.3462 C.ar    1  UNL1        0.0899
     15 H         139.4622  139.3068  172.3718 H       1  UNL1        0.1467
     16 H         138.7916  138.8656  170.8674 H       1  UNL1        0.1467
     17 C         143.9640  142.9335  165.1090 C.3     1  UNL1        0.4186
     18 F         144.7797  143.5816  164.0299 F       1  UNL1       -0.1659
     19 F         143.2418  142.1213  164.0752 F       1  UNL1       -0.1659
     20 F         144.6862  143.7456  166.1427 F       1  UNL1       -0.1659
     21 C         138.1005  140.1925  165.0594 C.3     1  UNL1        0.1747
     22 C         138.2570  140.9654  163.7835 C.2     1  UNL1        0.2425
     23 O         137.0442  141.3795  163.0039 O.2     1  UNL1       -0.2733
     24 N         139.6262  141.3241  163.2871 N.am    1  UNL1       -0.3018
     25 H         140.4222  141.0523  163.7988 H       1  UNL1        0.1495
     26 C         139.7827  142.0971  162.0112 C.3     1  UNL1        0.1035
     27 C         139.5728  143.5254  161.6037 C.3     1  UNL1        0.0933
     28 N         140.0040  143.1903  160.2067 N.3     1  UNL1       -0.2711
     29 C         140.2139  141.7620  160.6141 C.3     1  UNL1        0.0933
     30 C         140.1605  143.9632  158.9307 C.3     1  UNL1        0.0576
     31 C         141.1389  145.0977  158.8563 C.3     1  UNL1        0.0164
     32 C         141.2954  145.8706  157.5804 C.3     1  UNL1        0.0078
     33 C         140.4735  145.5091  156.3788 C.3     1  UNL1        0.0466
     34 C         139.4951  144.3745  156.4532 C.3     1  UNL1        0.0078
     35 C         139.3386  143.6016  157.7292 C.3     1  UNL1        0.0164
     36 C         140.6300  146.2820  155.1029 C.ar    1  UNL1        0.0879
     37 N         141.4427  145.8645  153.9132 N.ar    1  UNL1       -0.2412
     38 C         141.3164  146.9326  152.8676 C.ar    1  UNL1        0.1060
     39 C         140.4257  148.0103  153.4111 C.ar    1  UNL1        0.0572
     40 S         140.0015  147.6082  154.7925 S.2     1  UNL1       -0.0702
@<TRIPOS>BOND
     1     3     4   am
     2     4     5    2
     3     4     6   am
     4     6     7   ar
     5     7     8   ar
     6     8     1    1
     7     1    21    1
     8    21    22    1
     9    22    23    2
    10    22    24   am
    11    24    26    1
    12    26    27    1
    13    27    28    1
    14    30    28    1
    15    30    31    1
    16    31    32    1
    17    32    33    1
    18    33    36    1
    19    36    37   ar
    20    37    38   ar
    21    38    39   ar
    22    39    40   ar
    23    33    34    1
    24    34    35    1
    25    28    29    1
    26     8     9   ar
    27     9    10   ar
    28    10    11   ar
    29    11    17    1
    30    17    18    1
    31    17    19    1
    32    17    20    1
    33    11    12   ar
    34    12    13   ar
    35    13    14   ar
    36    14     6   ar
    37    29    26    1
    38    14     9   ar
    39    35    30    1
    40    40    36   ar
    41     3    15    1
    42     3    16    1
    43     1     2    1
    44    24    25    1
@<TRIPOS>MOLECULE
*****
 40 44 0 0 0
SMALL
GASTEIGER

@<TRIPOS>ATOM
      1 N         138.7629  139.7469  165.7899 N.pl3   1  UNL1       -0.3093
      2 H         137.9621  140.2760  165.5709 H       1  UNL1        0.1487
      3 N         139.4372  139.1687  171.5027 N.am    1  UNL1       -0.3097
      4 C         140.4577  140.0010  170.7843 C.2     1  UNL1        0.3328
      5 O         141.5819  140.6343  171.5491 O.2     1  UNL1       -0.2479
      6 N         140.3538  140.2001  169.3012 N.ar    1  UNL1       -0.1812
      7 N         139.2909  139.6324  168.4078 N.ar    1  UNL1       -0.1466
      8 C         139.5748  140.0832  167.0056 C.ar    1  UNL1        0.1505
      9 C         140.8130  140.9294  167.0324 C.ar    1  UNL1        0.0509
     10 C         141.5643  141.6435  165.9482 C.ar    1  UNL1        0.0082
     11 C         142.7971  142.4298  166.2828 C.ar    1  UNL1        0.0716
     12 C         143.2785  142.5021  167.7016 C.ar    1  UNL1        0.0054
     13 C         142.5272  141.7879  168.7858 C.ar    1  UNL1        0.0193
     14 C         141.2945  141.0016  168.4512 C.ar    1  UNL1        0.0899
     15 H         139.5054  139.0380  172.4761 H       1  UNL1        0.1467
     16 H         138.6993  138.7530  171.0007 H       1  UNL1        0.1467
     17 C         143.5485  143.1440  165.1986 C.3     1  UNL1        0.4186
     18 F         144.2998  143.8581  164.1144 F       1  UNL1       -0.1659
     19 F         142.4656  142.7977  164.2201 F       1  UNL1       -0.1659
     20 F         144.6313  143.4903  166.1770 F       1  UNL1       -0.1659
     21 C         139.1713  138.6043  164.9079 C.3     1  UNL1        0.1747
     22 C         140.0812  138.8462  163.7402 C.2     1  UNL1        0.2425
     23 O         140.6856  137.6854  163.0073 O.2     1  UNL1       -0.2733
     24 N         140.3866  140.2489  163.3055 N.am    1  UNL1       -0.3018
     25 H         139.9899  141.0107  163.7865 H       1  UNL1        0.1495
     26 C         141.2965  140.4908  162.1378 C.3     1  UNL1        0.1035
     27 C         141.0992  140.8732  160.7007 C.3     1  UNL1        0.0933
     28 N         142.5832  140.8329  160.4863 N.3     1  UNL1       -0.2711
     29 C         142.7805  140.4505  161.9232 C.3     1  UNL1        0.0933
     30 C         143.4931  141.0748  159.3185 C.3     1  UNL1        0.0576
     31 C         144.3346  142.3155  159.2679 C.3     1  UNL1        0.0164
     32 C         145.2445  142.5574  158.1002 C.3     1  UNL1        0.0078
     33 C         145.3129  141.5586  156.9831 C.3     1  UNL1        0.0466
     34 C         144.4714  140.3180  157.0338 C.3     1  UNL1        0.0078
     35 C         143.5615  140.0761  158.2015 C.3     1  UNL1        0.0164
     36 C         146.2228  141.8006  155.8155 C.ar    1  UNL1        0.0879
     37 N         147.3966  142.7344  155.7911 N.ar    1  UNL1       -0.2412
     38 C         148.0180  142.6623  154.4278 C.ar    1  UNL1        0.1060
     39 C         147.2284  141.6840  153.6095 C.ar    1  UNL1        0.0572
     40 S         146.1189  141.1515  154.4672 S.2     1  UNL1       -0.0702
@<TRIPOS>BOND
     1     3     4   am
     2     4     5    2
     3     4     6   am
     4     6     7   ar
     5     7     8   ar
     6     8     1    1
     7     1    21    1
     8    21    22    1
     9    22    23    2
    10    22    24   am
    11    24    26    1
    12    26    27    1
    13    27    28    1
    14    30    28    1
    15    30    31    1
    16    31    32    1
    17    32    33    1
    18    33    36    1
    19    36    37   ar
    20    37    38   ar
    21    38    39   ar
    22    39    40   ar
    23    33    34    1
    24    34    35    1
    25    28    29    1
    26     8     9   ar
    27     9    10   ar
    28    10    11   ar
    29    11    17    1
    30    17    18    1
    31    17    19    1
    32    17    20    1
    33    11    12   ar
    34    12    13   ar
    35    13    14   ar
    36    14     6   ar
    37    29    26    1
    38    14     9   ar
    39    35    30    1
    40    40    36   ar
    41     3    15    1
    42     3    16    1
    43     1     2    1
    44    24    25    1
@<TRIPOS>MOLECULE
*****
 40 44 0 0 0
SMALL
GASTEIGER

@<TRIPOS>ATOM
      1 N         139.5189  145.0991  164.0458 N.pl3   1  UNL1       -0.3093
      2 H         139.3136  145.8610  164.6345 H       1  UNL1        0.1487
      3 N         144.7974  143.8668  162.0349 N.am    1  UNL1       -0.3097
      4 C         144.3826  143.1823  163.3036 C.2     1  UNL1        0.3328
      5 O         145.3222  142.2320  163.9847 O.2     1  UNL1       -0.2479
      6 N         143.0283  143.4482  163.8911 N.ar    1  UNL1       -0.1812
      7 N         141.9871  144.3681  163.3256 N.ar    1  UNL1       -0.1466
      8 C         140.7927  144.3292  164.2322 C.ar    1  UNL1        0.1505
      9 C         141.0957  143.3854  165.3580 C.ar    1  UNL1        0.0509
     10 C         140.2920  142.9514  166.5478 C.ar    1  UNL1        0.0082
     11 C         140.8700  141.9729  167.5267 C.ar    1  UNL1        0.0716
     12 C         142.2517  141.4284  167.3159 C.ar    1  UNL1        0.0054
     13 C         143.0554  141.8623  166.1261 C.ar    1  UNL1        0.0193
     14 C         142.4774  142.8408  165.1471 C.ar    1  UNL1        0.0899
     15 H         145.6863  143.6923  161.6493 H       1  UNL1        0.1467
     16 H         144.1807  144.4905  161.5878 H       1  UNL1        0.1467
     17 C         140.0663  141.5389  168.7166 C.3     1  UNL1        0.4186
     18 F         139.2626  141.1048  169.9064 F       1  UNL1       -0.1659
     19 F         140.0655  140.1299  168.2021 F       1  UNL1       -0.1659
     20 F         140.0671  142.9478  169.2312 F       1  UNL1       -0.1659
     21 C         138.5580  144.7081  162.9623 C.3     1  UNL1        0.1747
     22 C         138.8413  143.5104  162.1048 C.2     1  UNL1        0.2425
     23 O         137.8951  142.3465  162.1059 O.2     1  UNL1       -0.2733
     24 N         140.0708  143.4768  161.2463 N.am    1  UNL1       -0.3018
     25 H         140.6918  144.2407  161.2455 H       1  UNL1        0.1495
     26 C         140.3541  142.2791  160.3888 C.3     1  UNL1        0.1035
     27 C         140.6301  142.0599  158.9307 C.3     1  UNL1        0.0933
     28 N         140.7548  140.5854  159.1760 N.3     1  UNL1       -0.2711
     29 C         140.4788  140.8046  160.6340 C.3     1  UNL1        0.0933
     30 C         141.0381  139.3877  158.3185 C.3     1  UNL1        0.0576
     31 C         142.4546  138.9614  158.0700 C.3     1  UNL1        0.0164
     32 C         142.7380  137.7638  157.2125 C.3     1  UNL1        0.0078
     33 C         141.6048  136.9923  156.6036 C.3     1  UNL1        0.0466
     34 C         140.1883  137.4185  156.8522 C.3     1  UNL1        0.0078
     35 C         139.9050  138.6162  157.7096 C.3     1  UNL1        0.0164
     36 C         141.8882  135.7946  155.7461 C.ar    1  UNL1        0.0879
     37 N         142.3388  134.4490  156.2323 N.ar    1  UNL1       -0.2412
     38 C         142.4999  133.5550  155.0387 C.ar    1  UNL1        0.1060
     39 C         142.1490  134.3480  153.8148 C.ar    1  UNL1        0.0572
     40 S         141.7710  135.7322  154.2520 S.2     1  UNL1       -0.0702
@<TRIPOS>BOND
     1     3     4   am
     2     4     5    2
     3     4     6   am
     4     6     7   ar
     5     7     8   ar
     6     8     1    1
     7     1    21    1
     8    21    22    1
     9    22    23    2
    10    22    24   am
    11    24    26    1
    12    26    27    1
    13    27    28    1
    14    30    28    1
    15    30    31    1
    16    31    32    1
    17    32    33    1
    18    33    36    1
    19    36    37   ar
    20    37    38   ar
    21    38    39   ar
    22    39    40   ar
    23    33    34    1
    24    34    35    1
    25    28    29    1
    26     8     9   ar
    27     9    10   ar
    28    10    11   ar
    29    11    17    1
    30    17    18    1
    31    17    19    1
    32    17    20    1
    33    11    12   ar
    34    12    13   ar
    35    13    14   ar
    36    14     6   ar
    37    29    26    1
    38    14     9   ar
    39    35    30    1
    40    40    36   ar
    41     3    15    1
    42     3    16    1
    43     1     2    1
    44    24    25    1
@<TRIPOS>MOLECULE
*****
 40 44 0 0 0
SMALL
GASTEIGER

@<TRIPOS>ATOM
      1 N         137.7462  140.4485  160.1804 N.pl3   1  UNL1       -0.3093
      2 H         136.9062  140.5805  159.6841 H       1  UNL1        0.1487
      3 N         138.9719  145.8466  161.8484 N.am    1  UNL1       -0.3097
      4 C         138.9780  144.7933  162.9165 C.2     1  UNL1        0.3328
      5 O         139.2920  145.1656  164.3351 O.2     1  UNL1       -0.2479
      6 N         138.6701  143.3678  162.5657 N.ar    1  UNL1       -0.1812
      7 N         138.3396  142.8480  161.1980 N.ar    1  UNL1       -0.1466
      8 C         138.1039  141.3707  161.3081 C.ar    1  UNL1        0.1505
      9 C         138.2887  140.9775  162.7438 C.ar    1  UNL1        0.0509
     10 C         138.1835  139.6551  163.4437 C.ar    1  UNL1        0.0082
     11 C         138.4283  139.5669  164.9210 C.ar    1  UNL1        0.0716
     12 C         138.7782  140.8011  165.6982 C.ar    1  UNL1        0.0054
     13 C         138.8834  142.1236  164.9983 C.ar    1  UNL1        0.0193
     14 C         138.6386  142.2118  163.5210 C.ar    1  UNL1        0.0899
     15 H         139.1740  146.7823  162.0787 H       1  UNL1        0.1467
     16 H         138.7659  145.6023  160.9173 H       1  UNL1        0.1467
     17 C         138.3231  138.2444  165.6210 C.3     1  UNL1        0.4186
     18 F         138.2179  136.9220  166.3211 F       1  UNL1       -0.1659
     19 F         137.6258  138.9086  166.7710 F       1  UNL1       -0.1659
     20 F         139.0204  137.5801  164.4710 F       1  UNL1       -0.1659
     21 C         138.6683  139.3251  159.8089 C.3     1  UNL1        0.1747
     22 C         139.9128  139.6060  159.0202 C.2     1  UNL1        0.2425
     23 O         140.0763  139.0278  157.6458 O.2     1  UNL1       -0.2733
     24 N         140.9939  140.4652  159.6059 N.am    1  UNL1       -0.3018
     25 H         140.8866  140.8447  160.5079 H       1  UNL1        0.1495
     26 C         142.2385  140.7461  158.8171 C.3     1  UNL1        0.1035
     27 C         143.5934  140.1110  158.7117 C.3     1  UNL1        0.0933
     28 N         143.9987  141.1433  157.7017 N.3     1  UNL1       -0.2711
     29 C         142.6438  141.7783  157.8071 C.3     1  UNL1        0.0933
     30 C         145.2433  141.4242  156.9129 C.3     1  UNL1        0.0576
     31 C         146.2432  142.4210  157.4194 C.3     1  UNL1        0.0164
     32 C         147.4877  142.7019  156.6307 C.3     1  UNL1        0.0078
     33 C         147.7324  141.9860  155.3354 C.3     1  UNL1        0.0466
     34 C         146.7325  140.9891  154.8290 C.3     1  UNL1        0.0078
     35 C         145.4880  140.7082  155.6177 C.3     1  UNL1        0.0164
     36 C         148.9770  142.2669  154.5468 C.ar    1  UNL1        0.0879
     37 N         149.1031  143.2468  153.4180 N.ar    1  UNL1       -0.2412
     38 C         150.5180  143.2029  152.9220 C.ar    1  UNL1        0.1060
     39 C         151.2664  142.1960  153.7441 C.ar    1  UNL1        0.0572
     40 S         150.3141  141.6175  154.7483 S.2     1  UNL1       -0.0702
@<TRIPOS>BOND
     1     3     4   am
     2     4     5    2
     3     4     6   am
     4     6     7   ar
     5     7     8   ar
     6     8     1    1
     7     1    21    1
     8    21    22    1
     9    22    23    2
    10    22    24   am
    11    24    26    1
    12    26    27    1
    13    27    28    1
    14    30    28    1
    15    30    31    1
    16    31    32    1
    17    32    33    1
    18    33    36    1
    19    36    37   ar
    20    37    38   ar
    21    38    39   ar
    22    39    40   ar
    23    33    34    1
    24    34    35    1
    25    28    29    1
    26     8     9   ar
    27     9    10   ar
    28    10    11   ar
    29    11    17    1
    30    17    18    1
    31    17    19    1
    32    17    20    1
    33    11    12   ar
    34    12    13   ar
    35    13    14   ar
    36    14     6   ar
    37    29    26    1
    38    14     9   ar
    39    35    30    1
    40    40    36   ar
    41     3    15    1
    42     3    16    1
    43     1     2    1
    44    24    25    1
@<TRIPOS>MOLECULE
*****
 40 44 0 0 0
SMALL
GASTEIGER

@<TRIPOS>ATOM
      1 N         142.1793  142.5467  165.9875 N.pl3   1  UNL1       -0.3093
      2 H         142.0129  143.4987  165.7998 H       1  UNL1        0.1487
      3 N         140.2783  141.5266  171.3513 N.am    1  UNL1       -0.3097
      4 C         139.6295  140.7465  170.2465 C.2     1  UNL1        0.3328
      5 O         138.5445  139.7601  170.5619 O.2     1  UNL1       -0.2479
      6 N         140.0659  140.9528  168.8262 N.ar    1  UNL1       -0.1812
      7 N         141.1322  141.8992  168.3602 N.ar    1  UNL1       -0.1466
      8 C         141.2378  141.7803  166.8687 C.ar    1  UNL1        0.1505
      9 C         140.2368  140.7603  166.4129 C.ar    1  UNL1        0.0509
     10 C         139.8913  140.2312  165.0525 C.ar    1  UNL1        0.0082
     11 C         138.8214  139.1907  164.9021 C.ar    1  UNL1        0.0716
     12 C         138.0971  138.6793  166.1120 C.ar    1  UNL1        0.0054
     13 C         138.4426  139.2084  167.4723 C.ar    1  UNL1        0.0193
     14 C         139.5125  140.2489  167.6228 C.ar    1  UNL1        0.0899
     15 H         139.9919  141.3912  172.2835 H       1  UNL1        0.1467
     16 H         140.9905  142.1741  171.1443 H       1  UNL1        0.1467
     17 C         138.4758  138.6616  163.5417 C.3     1  UNL1        0.4186
     18 F         138.1303  138.1324  162.1813 F       1  UNL1       -0.1659
     19 F         139.0420  137.3245  163.9180 F       1  UNL1       -0.1659
     20 F         137.9097  139.9986  163.1653 F       1  UNL1       -0.1659
     21 C         143.3742  141.8625  165.3923 C.3     1  UNL1        0.1747
     22 C         143.2306  141.0658  164.1295 C.2     1  UNL1        0.2425
     23 O         143.9369  139.7501  163.9883 O.2     1  UNL1       -0.2733
     24 N         142.3806  141.5850  163.0079 N.am    1  UNL1       -0.3018
     25 H         141.9170  142.4486  163.1006 H       1  UNL1        0.1495
     26 C         142.2370  140.7883  161.7451 C.3     1  UNL1        0.1035
     27 C         141.3781  139.6387  161.3081 C.3     1  UNL1        0.0933
     28 N         142.0338  139.6616  159.9592 N.3     1  UNL1       -0.2711
     29 C         142.8926  140.8112  160.3962 C.3     1  UNL1        0.0933
     30 C         141.8901  138.8650  158.6964 C.3     1  UNL1        0.0576
     31 C         140.9349  139.3143  157.6307 C.3     1  UNL1        0.0164
     32 C         140.7913  138.5177  156.3680 C.3     1  UNL1        0.0078
     33 C         141.6029  137.2717  156.1707 C.3     1  UNL1        0.0466
     34 C         142.5581  136.8224  157.2364 C.3     1  UNL1        0.0078
     35 C         142.7017  137.6190  158.4992 C.3     1  UNL1        0.0164
     36 C         141.4591  136.4751  154.9079 C.ar    1  UNL1        0.0879
     37 N         140.2486  136.4364  154.0229 N.ar    1  UNL1       -0.2412
     38 C         140.5419  135.5148  152.8763 C.ar    1  UNL1        0.1060
     39 C         141.9337  134.9839  153.0527 C.ar    1  UNL1        0.0572
     40 S         142.5006  135.5774  154.3082 S.2     1  UNL1       -0.0702
@<TRIPOS>BOND
     1     3     4   am
     2     4     5    2
     3     4     6   am
     4     6     7   ar
     5     7     8   ar
     6     8     1    1
     7     1    21    1
     8    21    22    1
     9    22    23    2
    10    22    24   am
    11    24    26    1
    12    26    27    1
    13    27    28    1
    14    30    28    1
    15    30    31    1
    16    31    32    1
    17    32    33    1
    18    33    36    1
    19    36    37   ar
    20    37    38   ar
    21    38    39   ar
    22    39    40   ar
    23    33    34    1
    24    34    35    1
    25    28    29    1
    26     8     9   ar
    27     9    10   ar
    28    10    11   ar
    29    11    17    1
    30    17    18    1
    31    17    19    1
    32    17    20    1
    33    11    12   ar
    34    12    13   ar
    35    13    14   ar
    36    14     6   ar
    37    29    26    1
    38    14     9   ar
    39    35    30    1
    40    40    36   ar
    41     3    15    1
    42     3    16    1
    43     1     2    1
    44    24    25    1
@<TRIPOS>MOLECULE
*****
 40 44 0 0 0
SMALL
GASTEIGER

@<TRIPOS>ATOM
      1 N         143.1738  135.9898  157.1871 N.pl3   1  UNL1       -0.3093
      2 H         143.9119  135.6912  157.7663 H       1  UNL1        0.1487
      3 N         140.3491  135.4457  152.1722 N.am    1  UNL1       -0.3097
      4 C         140.7748  134.1756  152.8473 C.2     1  UNL1        0.3328
      5 O         140.4626  132.8505  152.2176 O.2     1  UNL1       -0.2479
      6 N         141.5127  134.2307  154.1521 N.ar    1  UNL1       -0.1812
      7 N         141.8934  135.4752  154.8979 N.ar    1  UNL1       -0.1466
      8 C         142.6154  135.0645  156.1469 C.ar    1  UNL1        0.1505
      9 C         142.6809  133.5662  156.1731 C.ar    1  UNL1        0.0509
     10 C         143.2730  132.6046  157.1603 C.ar    1  UNL1        0.0082
     11 C         143.1837  131.1276  156.9146 C.ar    1  UNL1        0.0716
     12 C         142.5022  130.6122  155.6818 C.ar    1  UNL1        0.0054
     13 C         141.9100  131.5738  154.6946 C.ar    1  UNL1        0.0193
     14 C         141.9994  133.0508  154.9403 C.ar    1  UNL1        0.0899
     15 H         139.8648  135.4095  151.3158 H       1  UNL1        0.1467
     16 H         140.5540  136.3154  152.5855 H       1  UNL1        0.1467
     17 C         143.7759  130.1658  157.9018 C.3     1  UNL1        0.4186
     18 F         144.3681  129.2042  158.8890 F       1  UNL1       -0.1659
     19 F         144.7800  131.2028  158.3097 F       1  UNL1       -0.1659
     20 F         142.7718  129.1288  157.4940 F       1  UNL1       -0.1659
     21 C         142.6078  137.3700  157.3449 C.3     1  UNL1        0.1747
     22 C         142.5448  138.0040  158.7029 C.2     1  UNL1        0.2425
     23 O         142.0061  139.3955  158.8567 O.2     1  UNL1       -0.2733
     24 N         143.0205  137.2465  159.9070 N.am    1  UNL1       -0.3018
     25 H         143.3741  136.3333  159.8060 H       1  UNL1        0.1495
     26 C         142.9575  137.8806  161.2649 C.3     1  UNL1        0.1035
     27 C         141.8728  138.1260  162.2716 C.3     1  UNL1        0.0933
     28 N         142.8683  138.7772  163.1854 N.3     1  UNL1       -0.2711
     29 C         143.9529  138.5318  162.1787 C.3     1  UNL1        0.0933
     30 C         142.8053  139.4113  164.5434 C.3     1  UNL1        0.0576
     31 C         142.8739  138.5565  165.7741 C.3     1  UNL1        0.0164
     32 C         142.8109  139.1905  167.1320 C.3     1  UNL1        0.0078
     33 C         142.6793  140.6793  167.2593 C.3     1  UNL1        0.0466
     34 C         142.6107  141.5341  166.0286 C.3     1  UNL1        0.0078
     35 C         142.6737  140.9000  164.6706 C.3     1  UNL1        0.0164
     36 C         142.6163  141.3132  168.6172 C.ar    1  UNL1        0.0879
     37 N         143.2552  142.6108  169.0150 N.ar    1  UNL1       -0.2412
     38 C         142.9372  142.8605  170.4595 C.ar    1  UNL1        0.1060
     39 C         142.1017  141.7172  170.9545 C.ar    1  UNL1        0.0572
     40 S         141.9034  140.7610  169.8160 S.2     1  UNL1       -0.0702
@<TRIPOS>BOND
     1     3     4   am
     2     4     5    2
     3     4     6   am
     4     6     7   ar
     5     7     8   ar
     6     8     1    1
     7     1    21    1
     8    21    22    1
     9    22    23    2
    10    22    24   am
    11    24    26    1
    12    26    27    1
    13    27    28    1
    14    30    28    1
    15    30    31    1
    16    31    32    1
    17    32    33    1
    18    33    36    1
    19    36    37   ar
    20    37    38   ar
    21    38    39   ar
    22    39    40   ar
    23    33    34    1
    24    34    35    1
    25    28    29    1
    26     8     9   ar
    27     9    10   ar
    28    10    11   ar
    29    11    17    1
    30    17    18    1
    31    17    19    1
    32    17    20    1
    33    11    12   ar
    34    12    13   ar
    35    13    14   ar
    36    14     6   ar
    37    29    26    1
    38    14     9   ar
    39    35    30    1
    40    40    36   ar
    41     3    15    1
    42     3    16    1
    43     1     2    1
    44    24    25    1
@<TRIPOS>MOLECULE
*****
 40 44 0 0 0
SMALL
GASTEIGER

@<TRIPOS>ATOM
      1 N         143.0421  141.3200  166.2824 N.pl3   1  UNL1       -0.3093
      2 H         143.8832  140.8185  166.3838 H       1  UNL1        0.1487
      3 N         140.1948  141.4072  171.3133 N.am    1  UNL1       -0.3097
      4 C         139.5387  140.6756  170.1800 C.2     1  UNL1        0.3328
      5 O         138.2087  140.0131  170.3851 O.2     1  UNL1       -0.2479
      6 N         140.2126  140.6066  168.8417 N.ar    1  UNL1       -0.1812
      7 N         141.5364  141.2172  168.4886 N.ar    1  UNL1       -0.1466
      8 C         141.8229  140.9028  167.0502 C.ar    1  UNL1        0.1505
      9 C         140.6762  140.0979  166.5143 C.ar    1  UNL1        0.0509
     10 C         140.4097  139.5081  165.1611 C.ar    1  UNL1        0.0082
     11 C         139.1479  138.7352  164.9152 C.ar    1  UNL1        0.0716
     12 C         138.1527  138.5521  166.0224 C.ar    1  UNL1        0.0054
     13 C         138.4192  139.1419  167.3756 C.ar    1  UNL1        0.0193
     14 C         139.6809  139.9148  167.6215 C.ar    1  UNL1        0.0899
     15 H         139.7525  141.4525  172.1917 H       1  UNL1        0.1467
     16 H         141.0678  141.8420  171.1788 H       1  UNL1        0.1467
     17 C         138.8814  138.1453  163.5620 C.3     1  UNL1        0.4186
     18 F         138.6149  137.5554  162.2089 F       1  UNL1       -0.1659
     19 F         139.8482  137.0365  163.8550 F       1  UNL1       -0.1659
     20 F         137.9146  139.2541  163.2691 F       1  UNL1       -0.1659
     21 C         142.9798  142.5015  165.3602 C.3     1  UNL1        0.1747
     22 C         142.0914  142.4640  164.1522 C.2     1  UNL1        0.2425
     23 O         140.8525  143.3083  164.1058 O.2     1  UNL1       -0.2733
     24 N         142.4421  141.5822  162.9906 N.am    1  UNL1       -0.3018
     25 H         143.2553  141.0281  163.0210 H       1  UNL1        0.1495
     26 C         141.5537  141.5447  161.7825 C.3     1  UNL1        0.1035
     27 C         140.2472  140.8886  161.4467 C.3     1  UNL1        0.0933
     28 N         140.2973  141.4915  160.0741 N.3     1  UNL1       -0.2711
     29 C         141.6037  142.1476  160.4100 C.3     1  UNL1        0.0933
     30 C         139.4089  141.4540  158.8661 C.3     1  UNL1        0.0576
     31 C         138.5163  142.6187  158.5551 C.3     1  UNL1        0.0164
     32 C         137.6279  142.5812  157.3471 C.3     1  UNL1        0.0078
     33 C         137.6321  141.3789  156.4500 C.3     1  UNL1        0.0466
     34 C         138.5247  140.2142  156.7610 C.3     1  UNL1        0.0078
     35 C         139.4131  140.2518  157.9691 C.3     1  UNL1        0.0164
     36 C         136.7437  141.3415  155.2420 C.ar    1  UNL1        0.0879
     37 N         135.2487  141.4650  155.2429 N.ar    1  UNL1       -0.2412
     38 C         134.7753  141.3739  153.8225 C.ar    1  UNL1        0.1060
     39 C         135.9775  141.1940  152.9437 C.ar    1  UNL1        0.0572
     40 S         137.1941  141.1740  153.8210 S.2     1  UNL1       -0.0702
@<TRIPOS>BOND
     1     3     4   am
     2     4     5    2
     3     4     6   am
     4     6     7   ar
     5     7     8   ar
     6     8     1    1
     7     1    21    1
     8    21    22    1
     9    22    23    2
    10    22    24   am
    11    24    26    1
    12    26    27    1
    13    27    28    1
    14    30    28    1
    15    30    31    1
    16    31    32    1
    17    32    33    1
    18    33    36    1
    19    36    37   ar
    20    37    38   ar
    21    38    39   ar
    22    39    40   ar
    23    33    34    1
    24    34    35    1
    25    28    29    1
    26     8     9   ar
    27     9    10   ar
    28    10    11   ar
    29    11    17    1
    30    17    18    1
    31    17    19    1
    32    17    20    1
    33    11    12   ar
    34    12    13   ar
    35    13    14   ar
    36    14     6   ar
    37    29    26    1
    38    14     9   ar
    39    35    30    1
    40    40    36   ar
    41     3    15    1
    42     3    16    1
    43     1     2    1
    44    24    25    1
@<TRIPOS>MOLECULE
*****
 40 44 0 0 0
SMALL
GASTEIGER

@<TRIPOS>ATOM
      1 N         144.2596  142.9664  159.0763 N.pl3   1  UNL1       -0.3093
      2 H         145.0975  143.2152  159.5293 H       1  UNL1        0.1487
      3 N         138.4883  142.8562  158.7527 N.am    1  UNL1       -0.3097
      4 C         139.0830  143.0928  160.1094 C.2     1  UNL1        0.3328
      5 O         138.1878  143.2864  161.2972 O.2     1  UNL1       -0.2479
      6 N         140.5729  143.1357  160.2781 N.ar    1  UNL1       -0.1812
      7 N         141.5890  142.9600  159.1888 N.ar    1  UNL1       -0.1466
      8 C         142.9523  143.0776  159.8033 C.ar    1  UNL1        0.1505
      9 C         142.7788  143.3260  161.2724 C.ar    1  UNL1        0.0509
     10 C         143.7698  143.5241  162.3807 C.ar    1  UNL1        0.0082
     11 C         143.2903  143.7581  163.7826 C.ar    1  UNL1        0.0716
     12 C         141.8197  143.7940  164.0761 C.ar    1  UNL1        0.0054
     13 C         140.8287  143.5959  162.9677 C.ar    1  UNL1        0.0193
     14 C         141.3082  143.3619  161.5659 C.ar    1  UNL1        0.0899
     15 H         137.5105  142.8281  158.6420 H       1  UNL1        0.1467
     16 H         139.0759  142.7291  157.9731 H       1  UNL1        0.1467
     17 C         144.2814  143.9562  164.8910 C.3     1  UNL1        0.4186
     18 F         145.2724  144.1543  165.9995 F       1  UNL1       -0.1659
     19 F         144.4142  142.4694  165.0380 F       1  UNL1       -0.1659
     20 F         144.1486  145.4431  164.7441 F       1  UNL1       -0.1659
     21 C         144.2903  142.4759  157.6590 C.3     1  UNL1        0.1747
     22 C         144.2157  141.0054  157.3725 C.2     1  UNL1        0.2425
     23 O         145.4084  140.2890  156.8121 O.2     1  UNL1       -0.2733
     24 N         142.9483  140.2514  157.6464 N.am    1  UNL1       -0.3018
     25 H         142.1654  140.7216  158.0142 H       1  UNL1        0.1495
     26 C         142.8736  138.7809  157.3598 C.3     1  UNL1        0.1035
     27 C         142.5299  137.5603  158.1612 C.3     1  UNL1        0.0933
     28 N         142.7680  136.7013  156.9547 N.3     1  UNL1       -0.2711
     29 C         143.1117  137.9219  156.1535 C.3     1  UNL1        0.0933
     30 C         142.6934  135.2308  156.6682 C.3     1  UNL1        0.0576
     31 C         141.7180  134.7131  155.6530 C.3     1  UNL1        0.0164
     32 C         141.6434  133.2427  155.3665 C.3     1  UNL1        0.0078
     33 C         142.5441  132.2898  156.0952 C.3     1  UNL1        0.0466
     34 C         143.5195  132.8075  157.1103 C.3     1  UNL1        0.0078
     35 C         143.5941  134.2780  157.3969 C.3     1  UNL1        0.0164
     36 C         142.4694  130.8194  155.8086 C.ar    1  UNL1        0.0879
     37 N         142.8546  129.7169  156.7500 N.ar    1  UNL1       -0.2412
     38 C         142.6197  128.4094  156.0536 C.ar    1  UNL1        0.1060
     39 C         142.0892  128.7036  154.6817 C.ar    1  UNL1        0.0572
     40 S         141.9963  130.1930  154.5303 S.2     1  UNL1       -0.0702
@<TRIPOS>BOND
     1     3     4   am
     2     4     5    2
     3     4     6   am
     4     6     7   ar
     5     7     8   ar
     6     8     1    1
     7     1    21    1
     8    21    22    1
     9    22    23    2
    10    22    24   am
    11    24    26    1
    12    26    27    1
    13    27    28    1
    14    30    28    1
    15    30    31    1
    16    31    32    1
    17    32    33    1
    18    33    36    1
    19    36    37   ar
    20    37    38   ar
    21    38    39   ar
    22    39    40   ar
    23    33    34    1
    24    34    35    1
    25    28    29    1
    26     8     9   ar
    27     9    10   ar
    28    10    11   ar
    29    11    17    1
    30    17    18    1
    31    17    19    1
    32    17    20    1
    33    11    12   ar
    34    12    13   ar
    35    13    14   ar
    36    14     6   ar
    37    29    26    1
    38    14     9   ar
    39    35    30    1
    40    40    36   ar
    41     3    15    1
    42     3    16    1
    43     1     2    1
    44    24    25    1
