@<TRIPOS>MOLECULE
*****
 28 32 0 0 0
SMALL
GASTEIGER

@<TRIPOS>ATOM
      1 N         142.8241  139.0527  162.6327 N.ar    1  UNL1       -0.2729
      2 C         143.7914  139.8448  161.8040 C.ar    1  UNL1        0.0860
      3 C         143.9577  139.5360  160.3455 C.ar    1  UNL1        0.0561
      4 C         143.1568  138.4350  159.7159 C.ar    1  UNL1        0.1454
      5 C         142.1895  137.6429  160.5448 C.ar    1  UNL1        0.0980
      6 C         142.0232  137.9517  162.0031 C.ar    1  UNL1        0.2679
      7 O         141.0559  137.1596  162.8320 O.2     1  UNL1       -0.2665
      8 C         140.1686  143.0608  166.0497 C.3     1  UNL1        0.1316
      9 N         140.9517  141.9554  166.6938 N.ar    1  UNL1       -0.3128
     10 C         141.1398  141.7512  168.1679 C.ar    1  UNL1        0.1199
     11 N         141.9885  140.5298  168.3620 N.ar    1  UNL1       -0.2310
     12 C         142.3251  139.9791  167.0080 C.ar    1  UNL1        0.0984
     13 C         143.1322  138.7892  166.5806 C.ar    1  UNL1        0.0221
     14 C         143.2985  138.4805  165.1222 C.ar    1  UNL1        0.0193
     15 C         142.6577  139.3616  164.0912 C.ar    1  UNL1        0.0684
     16 C         141.8506  140.5514  164.5185 C.ar    1  UNL1        0.0364
     17 C         141.6843  140.8602  165.9769 C.ar    1  UNL1        0.0801
     18 C         140.5777  142.6165  169.2567 C.3     1  UNL1        0.0569
     19 C         139.8056  142.7586  170.5348 C.3     1  UNL1        0.0079
     20 C         140.3763  143.9730  169.8643 C.3     1  UNL1        0.0079
     21 O         143.3231  138.1262  158.2575 O.3     1  UNL1       -0.4699
     22 C         142.2526  137.3748  157.5232 C.3     1  UNL1        0.2384
     23 C         142.6205  136.2309  156.6252 C.ar    1  UNL1        0.0515
     24 C         142.3532  136.1455  155.1517 C.ar    1  UNL1        0.0072
     25 C         142.8877  134.8335  154.6589 C.ar    1  UNL1        0.0183
     26 C         143.4854  134.1080  155.8279 C.ar    1  UNL1        0.0868
     27 CL        144.1344  132.7562  155.7885 Cl      1  UNL1       -0.0752
     28 S         143.3202  134.9717  157.0431 S.2     1  UNL1       -0.0762
@<TRIPOS>BOND
     1     8     9    1
     2     9    10   ar
     3    10    18    1
     4    18    19    1
     5    19    20    1
     6    10    11   ar
     7    11    12   ar
     8    12    13   ar
     9    13    14   ar
    10    14    15   ar
    11    15     1    1
    12     1     2   ar
    13     2     3   ar
    14     3     4   ar
    15     4    21    1
    16    21    22    1
    17    22    23    1
    18    23    24   ar
    19    24    25   ar
    20    25    26   ar
    21    26    27    1
    22    26    28   ar
    23     4     5   ar
    24     5     6   ar
    25     6     7    2
    26    15    16   ar
    27    16    17   ar
    28    17     9   ar
    29    20    18    1
    30    17    12   ar
    31     6     1   ar
    32    28    23   ar
@<TRIPOS>MOLECULE
*****
 28 32 0 0 0
SMALL
GASTEIGER

@<TRIPOS>ATOM
      1 N         140.7634  138.5355  161.4161 N.ar    1  UNL1       -0.2729
      2 C         139.7431  138.7445  160.3366 C.ar    1  UNL1        0.0860
      3 C         140.1216  138.5482  158.8985 C.ar    1  UNL1        0.0561
      4 C         141.5206  138.1428  158.5398 C.ar    1  UNL1        0.1454
      5 C         142.5410  137.9338  159.6193 C.ar    1  UNL1        0.0980
      6 C         142.1624  138.1302  161.0574 C.ar    1  UNL1        0.2679
      7 O         143.1827  137.9212  162.1369 O.2     1  UNL1       -0.2665
      8 C         141.5485  142.4971  165.7150 C.3     1  UNL1        0.1316
      9 N         140.7492  141.2599  165.9987 N.ar    1  UNL1       -0.3128
     10 C         140.1036  140.9079  167.3062 C.ar    1  UNL1        0.1199
     11 N         139.4105  139.5880  167.1403 N.ar    1  UNL1       -0.2310
     12 C         139.6276  139.1243  165.7303 C.ar    1  UNL1        0.0984
     13 C         139.1789  137.8948  164.9978 C.ar    1  UNL1        0.0221
     14 C         139.5575  137.6985  163.5597 C.ar    1  UNL1        0.0193
     15 C         140.3848  138.7318  162.8542 C.ar    1  UNL1        0.0684
     16 C         140.8336  139.9614  163.5868 C.ar    1  UNL1        0.0364
     17 C         140.4550  140.1577  165.0248 C.ar    1  UNL1        0.0801
     18 C         140.1442  141.7311  168.5594 C.3     1  UNL1        0.0569
     19 C         140.4821  143.0130  169.2612 C.3     1  UNL1        0.0079
     20 C         139.8764  141.8751  170.0283 C.3     1  UNL1        0.0079
     21 O         141.8992  137.9465  157.1018 O.3     1  UNL1       -0.4699
     22 C         143.0386  137.0392  156.7434 C.3     1  UNL1        0.2384
     23 C         142.8029  135.5665  156.5832 C.ar    1  UNL1        0.0515
     24 C         143.5037  134.4744  157.3358 C.ar    1  UNL1        0.0072
     25 C         142.9589  133.1603  156.8601 C.ar    1  UNL1        0.0183
     26 C         141.9214  133.4402  155.8135 C.ar    1  UNL1        0.0868
     27 CL        141.1209  132.4133  155.0687 Cl      1  UNL1       -0.0752
     28 S         141.8250  134.9273  155.6424 S.2     1  UNL1       -0.0762
@<TRIPOS>BOND
     1     8     9    1
     2     9    10   ar
     3    10    18    1
     4    18    19    1
     5    19    20    1
     6    10    11   ar
     7    11    12   ar
     8    12    13   ar
     9    13    14   ar
    10    14    15   ar
    11    15     1    1
    12     1     2   ar
    13     2     3   ar
    14     3     4   ar
    15     4    21    1
    16    21    22    1
    17    22    23    1
    18    23    24   ar
    19    24    25   ar
    20    25    26   ar
    21    26    27    1
    22    26    28   ar
    23     4     5   ar
    24     5     6   ar
    25     6     7    2
    26    15    16   ar
    27    16    17   ar
    28    17     9   ar
    29    20    18    1
    30    17    12   ar
    31     6     1   ar
    32    28    23   ar
@<TRIPOS>MOLECULE
*****
 28 32 0 0 0
SMALL
GASTEIGER

@<TRIPOS>ATOM
      1 N         141.8732  141.3939  167.4377 N.ar    1  UNL1       -0.2729
      2 C         142.5751  142.0268  168.6024 C.ar    1  UNL1        0.0860
      3 C         143.1341  141.1682  169.6980 C.ar    1  UNL1        0.0561
      4 C         142.9913  139.6766  169.6288 C.ar    1  UNL1        0.1454
      5 C         142.2893  139.0437  168.4640 C.ar    1  UNL1        0.0980
      6 C         141.7303  139.9023  167.3685 C.ar    1  UNL1        0.2679
      7 O         141.0283  139.2693  166.2037 O.2     1  UNL1       -0.2665
      8 C         142.9517  142.6255  161.7710 C.3     1  UNL1        0.1316
      9 N         141.8018  143.2996  162.4591 N.ar    1  UNL1       -0.3128
     10 C         140.8613  144.2900  161.8390 C.ar    1  UNL1        0.1199
     11 N         139.8688  144.7041  162.8847 N.ar    1  UNL1       -0.2310
     12 C         140.1959  143.9696  164.1510 C.ar    1  UNL1        0.0984
     13 C         139.5603  143.9791  165.5096 C.ar    1  UNL1        0.0221
     14 C         140.1194  143.1205  166.6052 C.ar    1  UNL1        0.0193
     15 C         141.3141  142.2525  166.3421 C.ar    1  UNL1        0.0684
     16 C         141.9497  142.2430  164.9835 C.ar    1  UNL1        0.0364
     17 C         141.3906  143.1016  163.8879 C.ar    1  UNL1        0.0801
     18 C         140.9055  144.7803  160.4221 C.3     1  UNL1        0.0569
     19 C         140.3125  145.5933  159.3097 C.3     1  UNL1        0.0079
     20 C         141.5750  144.8164  159.0803 C.3     1  UNL1        0.0079
     21 O         143.5503  138.8180  170.7244 O.3     1  UNL1       -0.4699
     22 C         143.6528  137.3336  170.5354 C.3     1  UNL1        0.2384
     23 C         144.5314  136.5212  171.4401 C.ar    1  UNL1        0.0515
     24 C         144.5138  135.0277  171.5780 C.ar    1  UNL1        0.0072
     25 C         145.5533  134.6432  172.5888 C.ar    1  UNL1        0.0183
     26 C         146.2134  135.8992  173.0755 C.ar    1  UNL1        0.0868
     27 CL        147.3121  135.9802  174.0934 Cl      1  UNL1       -0.0752
     28 S         145.5818  137.0598  172.3655 S.2     1  UNL1       -0.0762
@<TRIPOS>BOND
     1     8     9    1
     2     9    10   ar
     3    10    18    1
     4    18    19    1
     5    19    20    1
     6    10    11   ar
     7    11    12   ar
     8    12    13   ar
     9    13    14   ar
    10    14    15   ar
    11    15     1    1
    12     1     2   ar
    13     2     3   ar
    14     3     4   ar
    15     4    21    1
    16    21    22    1
    17    22    23    1
    18    23    24   ar
    19    24    25   ar
    20    25    26   ar
    21    26    27    1
    22    26    28   ar
    23     4     5   ar
    24     5     6   ar
    25     6     7    2
    26    15    16   ar
    27    16    17   ar
    28    17     9   ar
    29    20    18    1
    30    17    12   ar
    31     6     1   ar
    32    28    23   ar
@<TRIPOS>MOLECULE
*****
 28 32 0 0 0
SMALL
GASTEIGER

@<TRIPOS>ATOM
      1 N         141.4184  142.0347  164.5944 N.ar    1  UNL1       -0.2729
      2 C         142.8224  142.1009  165.1182 C.ar    1  UNL1        0.0860
      3 C         143.2960  141.0937  166.1239 C.ar    1  UNL1        0.0561
      4 C         142.3655  140.0204  166.6058 C.ar    1  UNL1        0.1454
      5 C         140.9614  139.9543  166.0820 C.ar    1  UNL1        0.0980
      6 C         140.4879  140.9614  165.0764 C.ar    1  UNL1        0.2679
      7 O         139.0839  140.8953  164.5526 O.2     1  UNL1       -0.2665
      8 C         142.0859  143.2364  158.8584 C.3     1  UNL1        0.1316
      9 N         141.2049  144.1190  159.6920 N.ar    1  UNL1       -0.3128
     10 C         140.4469  145.3190  159.2068 C.ar    1  UNL1        0.1199
     11 N         139.7008  145.8982  160.3721 N.ar    1  UNL1       -0.2310
     12 C         139.9977  145.0562  161.5774 C.ar    1  UNL1        0.0984
     13 C         139.5417  145.1487  163.0034 C.ar    1  UNL1        0.0221
     14 C         140.0153  144.1415  164.0091 C.ar    1  UNL1        0.0193
     15 C         140.9449  143.0419  163.5887 C.ar    1  UNL1        0.0684
     16 C         141.4009  142.9494  162.1627 C.ar    1  UNL1        0.0364
     17 C         140.9273  143.9566  161.1571 C.ar    1  UNL1        0.0801
     18 C         140.4368  145.8471  157.8029 C.3     1  UNL1        0.0569
     19 C         141.0882  145.9730  156.4577 C.3     1  UNL1        0.0079
     20 C         139.7678  146.6359  156.7165 C.3     1  UNL1        0.0079
     21 O         142.8390  139.0133  167.6115 O.3     1  UNL1       -0.4699
     22 C         142.6061  139.2478  169.0746 C.3     1  UNL1        0.2384
     23 C         142.1970  140.6067  169.5606 C.ar    1  UNL1        0.0515
     24 C         143.1073  141.7816  169.7632 C.ar    1  UNL1        0.0072
     25 C         142.2787  142.9303  170.2571 C.ar    1  UNL1        0.0183
     26 C         140.8563  142.4653  170.3597 C.ar    1  UNL1        0.0868
     27 CL        139.6892  143.2913  170.8133 Cl      1  UNL1       -0.0752
     28 S         140.8058  141.0293  169.9293 S.2     1  UNL1       -0.0762
@<TRIPOS>BOND
     1     8     9    1
     2     9    10   ar
     3    10    18    1
     4    18    19    1
     5    19    20    1
     6    10    11   ar
     7    11    12   ar
     8    12    13   ar
     9    13    14   ar
    10    14    15   ar
    11    15     1    1
    12     1     2   ar
    13     2     3   ar
    14     3     4   ar
    15     4    21    1
    16    21    22    1
    17    22    23    1
    18    23    24   ar
    19    24    25   ar
    20    25    26   ar
    21    26    27    1
    22    26    28   ar
    23     4     5   ar
    24     5     6   ar
    25     6     7    2
    26    15    16   ar
    27    16    17   ar
    28    17     9   ar
    29    20    18    1
    30    17    12   ar
    31     6     1   ar
    32    28    23   ar
@<TRIPOS>MOLECULE
*****
 28 32 0 0 0
SMALL
GASTEIGER

@<TRIPOS>ATOM
      1 N         142.8266  139.1834  162.6437 N.ar    1  UNL1       -0.2729
      2 C         141.8731  138.2551  161.9517 C.ar    1  UNL1        0.0860
      3 C         142.0422  137.9582  160.4911 C.ar    1  UNL1        0.0561
      4 C         143.1649  138.5898  159.7225 C.ar    1  UNL1        0.1454
      5 C         144.1185  139.5182  160.4146 C.ar    1  UNL1        0.0980
      6 C         143.9493  139.8150  161.8752 C.ar    1  UNL1        0.2679
      7 O         144.9029  140.7433  162.5672 O.2     1  UNL1       -0.2665
      8 C         140.1914  143.1816  166.0878 C.3     1  UNL1        0.1316
      9 N         140.9631  142.0640  166.7245 N.ar    1  UNL1       -0.3128
     10 C         141.1442  141.8449  168.1973 C.ar    1  UNL1        0.1199
     11 N         141.9823  140.6148  168.3833 N.ar    1  UNL1       -0.2310
     12 C         142.3192  140.0738  167.0254 C.ar    1  UNL1        0.0984
     13 C         143.1182  138.8814  166.5901 C.ar    1  UNL1        0.0221
     14 C         143.2873  138.5846  165.1295 C.ar    1  UNL1        0.0193
     15 C         142.6575  139.4803  164.1043 C.ar    1  UNL1        0.0684
     16 C         141.8585  140.6727  164.5397 C.ar    1  UNL1        0.0364
     17 C         141.6894  140.9695  166.0002 C.ar    1  UNL1        0.0801
     18 C         140.5852  142.7047  169.2920 C.3     1  UNL1        0.0569
     19 C         140.4263  144.0515  169.9330 C.3     1  UNL1        0.0079
     20 C         139.7760  142.8472  170.5469 C.3     1  UNL1        0.0079
     21 O         143.3341  138.2930  158.2620 O.3     1  UNL1       -0.4699
     22 C         142.5693  137.1669  157.6320 C.3     1  UNL1        0.2384
     23 C         141.3224  137.4530  156.8487 C.ar    1  UNL1        0.0515
     24 C         140.6584  136.5225  155.8773 C.ar    1  UNL1        0.0072
     25 C         139.4463  137.2142  155.3275 C.ar    1  UNL1        0.0183
     26 C         139.3612  138.5721  155.9590 C.ar    1  UNL1        0.0868
     27 CL        138.3024  139.6018  155.6964 Cl      1  UNL1       -0.0752
     28 S         140.5206  138.7197  156.8991 S.2     1  UNL1       -0.0762
@<TRIPOS>BOND
     1     8     9    1
     2     9    10   ar
     3    10    18    1
     4    18    19    1
     5    19    20    1
     6    10    11   ar
     7    11    12   ar
     8    12    13   ar
     9    13    14   ar
    10    14    15   ar
    11    15     1    1
    12     1     2   ar
    13     2     3   ar
    14     3     4   ar
    15     4    21    1
    16    21    22    1
    17    22    23    1
    18    23    24   ar
    19    24    25   ar
    20    25    26   ar
    21    26    27    1
    22    26    28   ar
    23     4     5   ar
    24     5     6   ar
    25     6     7    2
    26    15    16   ar
    27    16    17   ar
    28    17     9   ar
    29    20    18    1
    30    17    12   ar
    31     6     1   ar
    32    28    23   ar
@<TRIPOS>MOLECULE
*****
 28 32 0 0 0
SMALL
GASTEIGER

@<TRIPOS>ATOM
      1 N         139.8405  143.7887  161.3993 N.ar    1  UNL1       -0.2729
      2 C         140.4536  144.9828  160.7298 C.ar    1  UNL1        0.0860
      3 C         140.3593  145.1385  159.2408 C.ar    1  UNL1        0.0561
      4 C         139.6521  144.1000  158.4214 C.ar    1  UNL1        0.1454
      5 C         139.0390  142.9059  159.0911 C.ar    1  UNL1        0.0980
      6 C         139.1333  142.7502  160.5799 C.ar    1  UNL1        0.2679
      7 O         138.5202  141.5561  161.2496 O.2     1  UNL1       -0.2665
      8 C         143.5189  141.5001  165.4022 C.3     1  UNL1        0.1316
      9 N         142.2533  142.1587  165.8653 N.ar    1  UNL1       -0.3128
     10 C         141.8050  142.3038  167.2894 C.ar    1  UNL1        0.1199
     11 N         140.4884  143.0226  167.2898 N.ar    1  UNL1       -0.2310
     12 C         140.1231  143.3218  165.8661 C.ar    1  UNL1        0.0984
     13 C         138.9382  144.0114  165.2576 C.ar    1  UNL1        0.0221
     14 C         138.8440  144.1670  163.7687 C.ar    1  UNL1        0.0193
     15 C         139.9348  143.6330  162.8883 C.ar    1  UNL1        0.0684
     16 C         141.1197  142.9435  163.4968 C.ar    1  UNL1        0.0364
     17 C         141.2139  142.7878  164.9857 C.ar    1  UNL1        0.0801
     18 C         142.5435  141.8158  168.5004 C.3     1  UNL1        0.0569
     19 C         143.5483  142.0470  169.5898 C.3     1  UNL1        0.0079
     20 C         142.8179  140.7394  169.5083 C.3     1  UNL1        0.0079
     21 O         139.5578  144.2556  156.9325 O.3     1  UNL1       -0.4699
     22 C         140.5266  145.1427  156.2084 C.3     1  UNL1        0.2384
     23 C         140.0703  146.4630  155.6618 C.ar    1  UNL1        0.0515
     24 C         140.3686  147.0014  154.2938 C.ar    1  UNL1        0.0072
     25 C         139.7183  148.3478  154.1736 C.ar    1  UNL1        0.0183
     26 C         139.0181  148.6414  155.4673 C.ar    1  UNL1        0.0868
     27 CL        138.2374  149.8821  155.7854 Cl      1  UNL1       -0.0752
     28 S         139.2357  147.4766  156.3870 S.2     1  UNL1       -0.0762
@<TRIPOS>BOND
     1     8     9    1
     2     9    10   ar
     3    10    18    1
     4    18    19    1
     5    19    20    1
     6    10    11   ar
     7    11    12   ar
     8    12    13   ar
     9    13    14   ar
    10    14    15   ar
    11    15     1    1
    12     1     2   ar
    13     2     3   ar
    14     3     4   ar
    15     4    21    1
    16    21    22    1
    17    22    23    1
    18    23    24   ar
    19    24    25   ar
    20    25    26   ar
    21    26    27    1
    22    26    28   ar
    23     4     5   ar
    24     5     6   ar
    25     6     7    2
    26    15    16   ar
    27    16    17   ar
    28    17     9   ar
    29    20    18    1
    30    17    12   ar
    31     6     1   ar
    32    28    23   ar
@<TRIPOS>MOLECULE
*****
 28 32 0 0 0
SMALL
GASTEIGER

@<TRIPOS>ATOM
      1 N         140.7151  144.3100  161.4320 N.ar    1  UNL1       -0.2729
      2 C         141.6419  144.7434  162.5289 C.ar    1  UNL1        0.0860
      3 C         141.2636  144.5186  163.9630 C.ar    1  UNL1        0.0561
      4 C         139.9586  143.8604  164.3001 C.ar    1  UNL1        0.1454
      5 C         139.0317  143.4270  163.2031 C.ar    1  UNL1        0.0980
      6 C         139.4100  143.6518  161.7691 C.ar    1  UNL1        0.2679
      7 O         138.4832  143.2185  160.6721 O.2     1  UNL1       -0.2665
      8 C         139.0036  147.6086  156.8514 C.3     1  UNL1        0.1316
      9 N         140.1527  146.6599  156.6796 N.ar    1  UNL1       -0.3128
     10 C         140.9434  146.4513  155.4221 C.ar    1  UNL1        0.1199
     11 N         141.9922  145.4158  155.7004 N.ar    1  UNL1       -0.2310
     12 C         141.8498  144.9843  157.1300 C.ar    1  UNL1        0.0984
     13 C         142.6084  143.9906  157.9588 C.ar    1  UNL1        0.0221
     14 C         142.2302  143.7659  159.3928 C.ar    1  UNL1        0.0193
     15 C         141.0933  144.5348  159.9980 C.ar    1  UNL1        0.0684
     16 C         140.3347  145.5285  159.1691 C.ar    1  UNL1        0.0364
     17 C         140.7129  145.7532  157.7351 C.ar    1  UNL1        0.0801
     18 C         140.7238  147.1548  154.1156 C.3     1  UNL1        0.0569
     19 C         140.0680  148.2455  153.3217 C.3     1  UNL1        0.0079
     20 C         140.9991  147.2826  152.6467 C.3     1  UNL1        0.0079
     21 O         139.5803  143.6356  165.7340 O.3     1  UNL1       -0.4699
     22 C         140.0975  142.4331  166.4664 C.3     1  UNL1        0.2384
     23 C         140.9173  142.6078  167.7104 C.ar    1  UNL1        0.0515
     24 C         140.4454  143.2119  168.9997 C.ar    1  UNL1        0.0072
     25 C         141.5893  143.1865  169.9697 C.ar    1  UNL1        0.0183
     26 C         142.7683  142.5666  169.2797 C.ar    1  UNL1        0.0868
     27 CL        144.1245  142.3436  169.8806 Cl      1  UNL1       -0.0752
     28 S         142.3529  142.2090  167.8835 S.2     1  UNL1       -0.0762
@<TRIPOS>BOND
     1     8     9    1
     2     9    10   ar
     3    10    18    1
     4    18    19    1
     5    19    20    1
     6    10    11   ar
     7    11    12   ar
     8    12    13   ar
     9    13    14   ar
    10    14    15   ar
    11    15     1    1
    12     1     2   ar
    13     2     3   ar
    14     3     4   ar
    15     4    21    1
    16    21    22    1
    17    22    23    1
    18    23    24   ar
    19    24    25   ar
    20    25    26   ar
    21    26    27    1
    22    26    28   ar
    23     4     5   ar
    24     5     6   ar
    25     6     7    2
    26    15    16   ar
    27    16    17   ar
    28    17     9   ar
    29    20    18    1
    30    17    12   ar
    31     6     1   ar
    32    28    23   ar
@<TRIPOS>MOLECULE
*****
 28 32 0 0 0
SMALL
GASTEIGER

@<TRIPOS>ATOM
      1 N         140.9496  140.7440  164.0378 N.ar    1  UNL1       -0.2729
      2 C         142.4300  140.9155  164.2076 C.ar    1  UNL1        0.0860
      3 C         143.1182  140.3433  165.4114 C.ar    1  UNL1        0.0561
      4 C         142.3258  139.5996  166.4454 C.ar    1  UNL1        0.1454
      5 C         140.8453  139.4282  166.2755 C.ar    1  UNL1        0.0980
      6 C         140.1573  140.0004  165.0718 C.ar    1  UNL1        0.2679
      7 O         138.6767  139.8289  164.9019 O.2     1  UNL1       -0.2665
      8 C         139.4163  139.0829  158.5898 C.3     1  UNL1        0.1316
      9 N         139.0825  140.4705  159.0515 N.ar    1  UNL1       -0.3128
     10 C         138.3746  141.5207  158.2479 C.ar    1  UNL1        0.1199
     11 N         138.2527  142.7507  159.0977 N.ar    1  UNL1       -0.2310
     12 C         138.8852  142.4607  160.4265 C.ar    1  UNL1        0.0984
     13 C         139.0605  143.2978  161.6588 C.ar    1  UNL1        0.0221
     14 C         139.7486  142.7256  162.8625 C.ar    1  UNL1        0.0193
     15 C         140.2615  141.3163  162.8340 C.ar    1  UNL1        0.0684
     16 C         140.0862  140.4792  161.6017 C.ar    1  UNL1        0.0364
     17 C         139.3981  141.0514  160.3980 C.ar    1  UNL1        0.0801
     18 C         137.8761  141.3678  156.8414 C.3     1  UNL1        0.0569
     19 C         136.7408  141.1858  155.8782 C.3     1  UNL1        0.0079
     20 C         138.1481  141.2849  155.3686 C.3     1  UNL1        0.0079
     21 O         143.0139  139.0274  167.6492 O.3     1  UNL1       -0.4699
     22 C         142.5384  139.3860  169.0258 C.3     1  UNL1        0.2384
     23 C         142.3695  140.8262  169.4096 C.ar    1  UNL1        0.0515
     24 C         143.4451  141.7312  169.9331 C.ar    1  UNL1        0.0072
     25 C         142.8357  143.0786  170.1843 C.ar    1  UNL1        0.0183
     26 C         141.3834  143.0064  169.8160 C.ar    1  UNL1        0.0868
     27 CL        140.3931  144.1291  169.9100 Cl      1  UNL1       -0.0752
     28 S         141.0953  141.6144  169.3372 S.2     1  UNL1       -0.0762
@<TRIPOS>BOND
     1     8     9    1
     2     9    10   ar
     3    10    18    1
     4    18    19    1
     5    19    20    1
     6    10    11   ar
     7    11    12   ar
     8    12    13   ar
     9    13    14   ar
    10    14    15   ar
    11    15     1    1
    12     1     2   ar
    13     2     3   ar
    14     3     4   ar
    15     4    21    1
    16    21    22    1
    17    22    23    1
    18    23    24   ar
    19    24    25   ar
    20    25    26   ar
    21    26    27    1
    22    26    28   ar
    23     4     5   ar
    24     5     6   ar
    25     6     7    2
    26    15    16   ar
    27    16    17   ar
    28    17     9   ar
    29    20    18    1
    30    17    12   ar
    31     6     1   ar
    32    28    23   ar
@<TRIPOS>MOLECULE
*****
 28 32 0 0 0
SMALL
GASTEIGER

@<TRIPOS>ATOM
      1 N         139.1196  139.9073  162.1735 N.ar    1  UNL1       -0.2729
      2 C         138.5638  141.0959  161.4467 C.ar    1  UNL1        0.0860
      3 C         138.2954  141.0159  159.9730 C.ar    1  UNL1        0.0561
      4 C         138.5830  139.7473  159.2262 C.ar    1  UNL1        0.1454
      5 C         139.1388  138.5586  159.9530 C.ar    1  UNL1        0.0980
      6 C         139.4071  138.6386  161.4266 C.ar    1  UNL1        0.2679
      7 O         139.9630  137.4500  162.1534 O.2     1  UNL1       -0.2665
      8 C         143.3799  141.7362  165.8199 C.3     1  UNL1        0.1316
      9 N         142.1254  141.1509  166.3975 N.ar    1  UNL1       -0.3128
     10 C         141.8257  140.9737  167.8565 C.ar    1  UNL1        0.1199
     11 N         140.4654  140.3534  167.9782 N.ar    1  UNL1       -0.2310
     12 C         139.9244  140.1472  166.5944 C.ar    1  UNL1        0.0984
     13 C         138.6302  139.5743  166.0977 C.ar    1  UNL1        0.0221
     14 C         138.3619  139.4944  164.6241 C.ar    1  UNL1        0.0193
     15 C         139.3879  139.9873  163.6472 C.ar    1  UNL1        0.0684
     16 C         140.6821  140.5602  164.1438 C.ar    1  UNL1        0.0364
     17 C         140.9504  140.6401  165.6174 C.ar    1  UNL1        0.0801
     18 C         142.7278  141.3506  168.9941 C.3     1  UNL1        0.0569
     19 C         143.2937  141.0637  170.3532 C.3     1  UNL1        0.0079
     20 C         143.7244  142.2904  169.6052 C.3     1  UNL1        0.0079
     21 O         138.3147  139.6672  157.7526 O.3     1  UNL1       -0.4699
     22 C         139.4583  139.6430  156.7823 C.3     1  UNL1        0.2384
     23 C         140.1368  138.3459  156.4549 C.ar    1  UNL1        0.0515
     24 C         139.6046  137.2772  155.5467 C.ar    1  UNL1        0.0072
     25 C         140.6054  136.1605  155.5086 C.ar    1  UNL1        0.0183
     26 C         141.7562  136.5391  156.3933 C.ar    1  UNL1        0.0868
     27 CL        142.9814  135.7122  156.6484 Cl      1  UNL1       -0.0752
     28 S         141.4665  137.8897  156.9781 S.2     1  UNL1       -0.0762
@<TRIPOS>BOND
     1     8     9    1
     2     9    10   ar
     3    10    18    1
     4    18    19    1
     5    19    20    1
     6    10    11   ar
     7    11    12   ar
     8    12    13   ar
     9    13    14   ar
    10    14    15   ar
    11    15     1    1
    12     1     2   ar
    13     2     3   ar
    14     3     4   ar
    15     4    21    1
    16    21    22    1
    17    22    23    1
    18    23    24   ar
    19    24    25   ar
    20    25    26   ar
    21    26    27    1
    22    26    28   ar
    23     4     5   ar
    24     5     6   ar
    25     6     7    2
    26    15    16   ar
    27    16    17   ar
    28    17     9   ar
    29    20    18    1
    30    17    12   ar
    31     6     1   ar
    32    28    23   ar
