@<TRIPOS>MOLECULE
*****
 24 25 0 0 0
SMALL
GASTEIGER

@<TRIPOS>ATOM
      1 C         140.0483  141.2826  167.1646 C.ar    1  UNL1        0.0265
      2 C         139.4824  139.9118  167.3891 C.ar    1  UNL1        0.0039
      3 C         138.5432  139.3142  166.3837 C.ar    1  UNL1        0.0713
      4 C         138.1701  140.0874  165.1537 C.ar    1  UNL1        0.0070
      5 C         138.7361  141.4582  164.9292 C.ar    1  UNL1        0.0372
      6 C         139.6752  142.0558  165.9347 C.ar    1  UNL1        0.1425
      7 C         137.9772  137.9433  166.6083 C.3     1  UNL1        0.4186
      8 F         137.4112  136.5725  166.8328 F       1  UNL1       -0.1659
      9 F         137.1085  138.4818  167.7061 F       1  UNL1       -0.1659
     10 F         138.8459  137.4047  165.5104 F       1  UNL1       -0.1659
     11 C         140.9875  141.8802  168.1700 C.3     1  UNL1        0.0799
     12 C         142.3159  141.2347  168.4317 C.3     1  UNL1        0.0221
     13 C         140.0292  143.0218  170.2980 C.3     1  UNL1        0.0861
     14 N         140.5982  143.1232  168.9138 N.3     1  UNL1       -0.2939
     15 H         141.4363  143.7005  168.9815 H       1  UNL1        0.1235
     16 O         140.2412  143.4267  165.7101 O.3     1  UNL1       -0.4537
     17 C         140.3951  143.9552  164.3148 C.ar    1  UNL1        0.1462
     18 C         139.3820  144.9117  163.7590 C.ar    1  UNL1        0.0384
     19 C         139.5359  145.4402  162.3637 C.ar    1  UNL1        0.0154
     20 C         140.7030  145.0123  161.5241 C.ar    1  UNL1        0.0684
     21 CL        140.8569  145.5409  160.1288 Cl      1  UNL1       -0.0814
     22 C         141.7161  144.0560  162.0798 C.ar    1  UNL1        0.0712
     23 CL        142.8832  143.6281  161.2402 Cl      1  UNL1       -0.0813
     24 C         141.5622  143.5274  163.4752 C.ar    1  UNL1        0.0497
@<TRIPOS>BOND
     1    13    14    1
     2    14    11    1
     3    11    12    1
     4    11     1    1
     5     1     2   ar
     6     2     3   ar
     7     3     7    1
     8     7     8    1
     9     7     9    1
    10     7    10    1
    11     3     4   ar
    12     4     5   ar
    13     5     6   ar
    14     6    16    1
    15    16    17    1
    16    17    18   ar
    17    18    19   ar
    18    19    20   ar
    19    20    21    1
    20    20    22   ar
    21    22    23    1
    22    22    24   ar
    23     6     1   ar
    24    24    17   ar
    25    14    15    1
@<TRIPOS>MOLECULE
*****
 24 25 0 0 0
SMALL
GASTEIGER

@<TRIPOS>ATOM
      1 C         139.9282  141.0895  167.3749 C.ar    1  UNL1        0.0265
      2 C         139.3373  139.7230  167.5576 C.ar    1  UNL1        0.0039
      3 C         138.4383  139.1476  166.5037 C.ar    1  UNL1        0.0713
      4 C         138.1301  139.9387  165.2672 C.ar    1  UNL1        0.0070
      5 C         138.7210  141.3052  165.0845 C.ar    1  UNL1        0.0372
      6 C         139.6201  141.8806  166.1383 C.ar    1  UNL1        0.1425
      7 C         137.8473  137.7810  166.6865 C.3     1  UNL1        0.4186
      8 F         137.2565  136.4145  166.8692 F       1  UNL1       -0.1659
      9 F         138.6934  137.2647  165.5607 F       1  UNL1       -0.1659
     10 F         137.0013  138.2974  167.8123 F       1  UNL1       -0.1659
     11 C         140.8273  141.6649  168.4288 C.3     1  UNL1        0.0799
     12 C         142.0776  140.9380  168.8265 C.3     1  UNL1        0.0221
     13 C         139.9131  142.9788  170.4752 C.3     1  UNL1        0.0861
     14 N         140.4760  142.9672  169.0849 N.3     1  UNL1       -0.2939
     15 H         141.3297  143.5249  169.1082 H       1  UNL1        0.1235
     16 O         140.2110  143.2472  165.9556 O.3     1  UNL1       -0.4537
     17 C         141.3506  143.4501  165.0016 C.ar    1  UNL1        0.1462
     18 C         141.2320  144.4551  163.8943 C.ar    1  UNL1        0.0384
     19 C         142.3716  144.6580  162.9404 C.ar    1  UNL1        0.0154
     20 C         143.6299  143.8559  163.0936 C.ar    1  UNL1        0.0684
     21 CL        144.7695  144.0588  162.1397 Cl      1  UNL1       -0.0814
     22 C         143.7485  142.8510  164.2008 C.ar    1  UNL1        0.0712
     23 CL        145.0068  142.0489  164.3541 Cl      1  UNL1       -0.0813
     24 C         142.6089  142.6481  165.1549 C.ar    1  UNL1        0.0497
@<TRIPOS>BOND
     1    13    14    1
     2    14    11    1
     3    11    12    1
     4    11     1    1
     5     1     2   ar
     6     2     3   ar
     7     3     7    1
     8     7     8    1
     9     7     9    1
    10     7    10    1
    11     3     4   ar
    12     4     5   ar
    13     5     6   ar
    14     6    16    1
    15    16    17    1
    16    17    18   ar
    17    18    19   ar
    18    19    20   ar
    19    20    21    1
    20    20    22   ar
    21    22    23    1
    22    22    24   ar
    23     6     1   ar
    24    24    17   ar
    25    14    15    1
@<TRIPOS>MOLECULE
*****
 24 25 0 0 0
SMALL
GASTEIGER

@<TRIPOS>ATOM
      1 C         140.0686  141.3839  167.1137 C.ar    1  UNL1        0.0265
      2 C         139.4912  140.0276  167.3911 C.ar    1  UNL1        0.0039
      3 C         138.5600  139.3922  166.4015 C.ar    1  UNL1        0.0713
      4 C         138.2062  140.1132  165.1347 C.ar    1  UNL1        0.0070
      5 C         138.7836  141.4695  164.8573 C.ar    1  UNL1        0.0372
      6 C         139.7148  142.1048  165.8468 C.ar    1  UNL1        0.1425
      7 C         137.9825  138.0358  166.6790 C.3     1  UNL1        0.4186
      8 F         137.4051  136.6795  166.9564 F       1  UNL1       -0.1659
      9 F         137.1640  138.6128  167.7957 F       1  UNL1       -0.1659
     10 F         138.8011  137.4589  165.5622 F       1  UNL1       -0.1659
     11 C         140.9998  142.0192  168.1032 C.3     1  UNL1        0.0799
     12 C         140.4779  143.0265  169.0845 C.3     1  UNL1        0.0221
     13 C         143.3624  142.1993  169.1689 C.3     1  UNL1        0.0861
     14 N         142.4529  141.6473  168.1114 N.3     1  UNL1       -0.2939
     15 H         142.4963  140.6310  168.1869 H       1  UNL1        0.1235
     16 O         140.2922  143.4612  165.5694 O.3     1  UNL1       -0.4537
     17 C         140.6019  143.8705  164.1600 C.ar    1  UNL1        0.1462
     18 C         141.6432  143.1289  163.3752 C.ar    1  UNL1        0.0384
     19 C         141.9529  143.5383  161.9658 C.ar    1  UNL1        0.0154
     20 C         141.2214  144.6892  161.3411 C.ar    1  UNL1        0.0684
     21 CL        141.5310  145.0985  159.9317 Cl      1  UNL1       -0.0814
     22 C         140.1801  145.4308  162.1258 C.ar    1  UNL1        0.0712
     23 CL        139.4486  146.5817  161.5011 Cl      1  UNL1       -0.0813
     24 C         139.8704  145.0215  163.5353 C.ar    1  UNL1        0.0497
@<TRIPOS>BOND
     1    13    14    1
     2    14    11    1
     3    11    12    1
     4    11     1    1
     5     1     2   ar
     6     2     3   ar
     7     3     7    1
     8     7     8    1
     9     7     9    1
    10     7    10    1
    11     3     4   ar
    12     4     5   ar
    13     5     6   ar
    14     6    16    1
    15    16    17    1
    16    17    18   ar
    17    18    19   ar
    18    19    20   ar
    19    20    21    1
    20    20    22   ar
    21    22    23    1
    22    22    24   ar
    23     6     1   ar
    24    24    17   ar
    25    14    15    1
@<TRIPOS>MOLECULE
*****
 24 25 0 0 0
SMALL
GASTEIGER

@<TRIPOS>ATOM
      1 C         143.0585  141.1128  165.9548 C.ar    1  UNL1        0.0265
      2 C         143.0823  142.1218  167.0643 C.ar    1  UNL1        0.0039
      3 C         142.9184  141.6761  168.4872 C.ar    1  UNL1        0.0713
      4 C         142.7307  140.2213  168.8004 C.ar    1  UNL1        0.0070
      5 C         142.7069  139.2122  167.6909 C.ar    1  UNL1        0.0372
      6 C         142.8708  139.6579  166.2681 C.ar    1  UNL1        0.1425
      7 C         142.9422  142.6853  169.5967 C.3     1  UNL1        0.4186
      8 F         142.9660  143.6944  170.7062 F       1  UNL1       -0.1659
      9 F         144.3244  142.2399  169.9721 F       1  UNL1       -0.1659
     10 F         141.5599  143.1307  169.2213 F       1  UNL1       -0.1659
     11 C         143.2223  141.5585  164.5319 C.3     1  UNL1        0.0799
     12 C         142.2910  142.5830  163.9549 C.3     1  UNL1        0.0221
     13 C         145.7120  141.5228  163.7901 C.3     1  UNL1        0.0861
     14 N         144.3176  140.9798  163.6861 N.3     1  UNL1       -0.2939
     15 H         144.3707  139.9866  163.9123 H       1  UNL1        0.1235
     16 O         142.8470  138.6488  165.1585 O.3     1  UNL1       -0.4537
     17 C         141.6020  138.4592  164.3436 C.ar    1  UNL1        0.1462
     18 C         140.2927  138.1927  165.0254 C.ar    1  UNL1        0.0384
     19 C         139.0477  138.0032  164.2106 C.ar    1  UNL1        0.0154
     20 C         139.1119  138.0802  162.7140 C.ar    1  UNL1        0.0684
     21 CL        137.8669  137.8906  161.8991 Cl      1  UNL1       -0.0814
     22 C         140.4211  138.3467  162.0321 C.ar    1  UNL1        0.0712
     23 CL        140.4853  138.4236  160.5355 Cl      1  UNL1       -0.0813
     24 C         141.6662  138.5362  162.8470 C.ar    1  UNL1        0.0497
@<TRIPOS>BOND
     1    13    14    1
     2    14    11    1
     3    11    12    1
     4    11     1    1
     5     1     2   ar
     6     2     3   ar
     7     3     7    1
     8     7     8    1
     9     7     9    1
    10     7    10    1
    11     3     4   ar
    12     4     5   ar
    13     5     6   ar
    14     6    16    1
    15    16    17    1
    16    17    18   ar
    17    18    19   ar
    18    19    20   ar
    19    20    21    1
    20    20    22   ar
    21    22    23    1
    22    22    24   ar
    23     6     1   ar
    24    24    17   ar
    25    14    15    1
@<TRIPOS>MOLECULE
*****
 24 25 0 0 0
SMALL
GASTEIGER

@<TRIPOS>ATOM
      1 C         138.6659  141.2607  165.1068 C.ar    1  UNL1        0.0265
      2 C         138.0651  139.9016  165.3115 C.ar    1  UNL1        0.0039
      3 C         138.4032  139.1093  166.5395 C.ar    1  UNL1        0.0713
      4 C         139.3421  139.6761  167.5628 C.ar    1  UNL1        0.0070
      5 C         139.9429  141.0352  167.3581 C.ar    1  UNL1        0.0372
      6 C         139.6048  141.8275  166.1301 C.ar    1  UNL1        0.1425
      7 C         137.8024  137.7502  166.7442 C.3     1  UNL1        0.4186
      8 F         137.2016  136.3912  166.9489 F       1  UNL1       -0.1659
      9 F         136.9677  138.2885  167.8682 F       1  UNL1       -0.1659
     10 F         138.6371  137.2119  165.6202 F       1  UNL1       -0.1659
     11 C         138.3278  142.0529  163.8788 C.3     1  UNL1        0.0799
     12 C         138.5620  141.4650  162.5189 C.3     1  UNL1        0.0221
     13 C         137.9470  144.4330  162.9091 C.3     1  UNL1        0.0861
     14 N         137.7554  143.4331  164.0107 N.3     1  UNL1       -0.2939
     15 H         136.7493  143.3238  164.1374 H       1  UNL1        0.1235
     16 O         140.2057  143.1866  165.9254 O.3     1  UNL1       -0.4537
     17 C         141.3531  143.3641  164.9758 C.ar    1  UNL1        0.1462
     18 C         141.4204  144.5798  164.0996 C.ar    1  UNL1        0.0384
     19 C         142.5678  144.7573  163.1499 C.ar    1  UNL1        0.0154
     20 C         143.6480  143.7191  163.0764 C.ar    1  UNL1        0.0684
     21 CL        144.7954  143.8966  162.1268 Cl      1  UNL1       -0.0814
     22 C         143.5807  142.5034  163.9525 C.ar    1  UNL1        0.0712
     23 CL        144.6609  141.4653  163.8789 Cl      1  UNL1       -0.0813
     24 C         142.4333  142.3259  164.9022 C.ar    1  UNL1        0.0497
@<TRIPOS>BOND
     1    13    14    1
     2    14    11    1
     3    11    12    1
     4    11     1    1
     5     1     2   ar
     6     2     3   ar
     7     3     7    1
     8     7     8    1
     9     7     9    1
    10     7    10    1
    11     3     4   ar
    12     4     5   ar
    13     5     6   ar
    14     6    16    1
    15    16    17    1
    16    17    18   ar
    17    18    19   ar
    18    19    20   ar
    19    20    21    1
    20    20    22   ar
    21    22    23    1
    22    22    24   ar
    23     6     1   ar
    24    24    17   ar
    25    14    15    1
@<TRIPOS>MOLECULE
*****
 24 25 0 0 0
SMALL
GASTEIGER

@<TRIPOS>ATOM
      1 C         141.6709  139.5005  166.4507 C.ar    1  UNL1        0.0265
      2 C         142.5613  139.3744  167.6512 C.ar    1  UNL1        0.0039
      3 C         142.0138  139.6402  169.0222 C.ar    1  UNL1        0.0713
      4 C         140.5760  140.0322  169.1927 C.ar    1  UNL1        0.0070
      5 C         139.6857  140.1583  167.9921 C.ar    1  UNL1        0.0372
      6 C         140.2332  139.8925  166.6211 C.ar    1  UNL1        0.1425
      7 C         142.9042  139.5141  170.2228 C.3     1  UNL1        0.4186
      8 F         143.7946  139.3880  171.4233 F       1  UNL1       -0.1659
      9 F         143.1842  140.9867  170.1698 F       1  UNL1       -0.1659
     10 F         142.6243  138.0414  170.2757 F       1  UNL1       -0.1659
     11 C         142.2184  139.2347  165.0797 C.3     1  UNL1        0.0799
     12 C         143.5887  139.7215  164.7119 C.3     1  UNL1        0.0221
     13 C         141.1119  137.0236  164.2819 C.3     1  UNL1        0.0861
     14 N         141.3955  138.4821  164.0765 N.3     1  UNL1       -0.2939
     15 H         140.4923  138.9531  164.0237 H       1  UNL1        0.1235
     16 O         139.3427  140.0187  165.4205 O.3     1  UNL1       -0.4537
     17 C         139.1889  141.3449  164.7370 C.ar    1  UNL1        0.1462
     18 C         137.9271  141.6619  163.9901 C.ar    1  UNL1        0.0384
     19 C         137.7733  142.9881  163.3065 C.ar    1  UNL1        0.0154
     20 C         138.8810  143.9975  163.3697 C.ar    1  UNL1        0.0684
     21 CL        138.7272  145.3237  162.6861 Cl      1  UNL1       -0.0814
     22 C         140.1427  143.6806  164.1165 C.ar    1  UNL1        0.0712
     23 CL        141.2505  144.6899  164.1797 Cl      1  UNL1       -0.0813
     24 C         140.2966  142.3543  164.8001 C.ar    1  UNL1        0.0497
@<TRIPOS>BOND
     1    13    14    1
     2    14    11    1
     3    11    12    1
     4    11     1    1
     5     1     2   ar
     6     2     3   ar
     7     3     7    1
     8     7     8    1
     9     7     9    1
    10     7    10    1
    11     3     4   ar
    12     4     5   ar
    13     5     6   ar
    14     6    16    1
    15    16    17    1
    16    17    18   ar
    17    18    19   ar
    18    19    20   ar
    19    20    21    1
    20    20    22   ar
    21    22    23    1
    22    22    24   ar
    23     6     1   ar
    24    24    17   ar
    25    14    15    1
@<TRIPOS>MOLECULE
*****
 24 25 0 0 0
SMALL
GASTEIGER

@<TRIPOS>ATOM
      1 C         140.4122  141.3201  166.6062 C.ar    1  UNL1        0.0265
      2 C         139.8633  139.9481  166.8637 C.ar    1  UNL1        0.0039
      3 C         138.6766  139.4574  166.0885 C.ar    1  UNL1        0.0713
      4 C         138.0388  140.3387  165.0559 C.ar    1  UNL1        0.0070
      5 C         138.5877  141.7107  164.7983 C.ar    1  UNL1        0.0372
      6 C         139.7744  142.2013  165.5735 C.ar    1  UNL1        0.1425
      7 C         138.1277  138.0854  166.3461 C.3     1  UNL1        0.4186
      8 F         137.5788  136.7134  166.6036 F       1  UNL1       -0.1659
      9 F         139.0503  137.5212  165.3067 F       1  UNL1       -0.1659
     10 F         137.2051  138.6495  167.3855 F       1  UNL1       -0.1659
     11 C         141.5990  141.8108  167.3813 C.3     1  UNL1        0.0799
     12 C         141.6129  141.7062  168.8776 C.3     1  UNL1        0.0221
     13 C         143.5167  141.5948  165.6419 C.3     1  UNL1        0.0861
     14 N         142.7718  142.4060  166.6602 N.3     1  UNL1       -0.2939
     15 H         142.4307  143.2392  166.1807 H       1  UNL1        0.1235
     16 O         140.3233  143.5734  165.3159 O.3     1  UNL1       -0.4537
     17 C         140.5203  144.0501  163.9074 C.ar    1  UNL1        0.1462
     18 C         139.5976  145.0816  163.3287 C.ar    1  UNL1        0.0384
     19 C         139.7945  145.5583  161.9203 C.ar    1  UNL1        0.0154
     20 C         140.9142  145.0037  161.0904 C.ar    1  UNL1        0.0684
     21 CL        141.1112  145.4804  159.6819 Cl      1  UNL1       -0.0814
     22 C         141.8369  143.9723  161.6690 C.ar    1  UNL1        0.0712
     23 CL        142.9566  143.4177  160.8391 Cl      1  UNL1       -0.0813
     24 C         141.6400  143.4955  163.0775 C.ar    1  UNL1        0.0497
@<TRIPOS>BOND
     1    13    14    1
     2    14    11    1
     3    11    12    1
     4    11     1    1
     5     1     2   ar
     6     2     3   ar
     7     3     7    1
     8     7     8    1
     9     7     9    1
    10     7    10    1
    11     3     4   ar
    12     4     5   ar
    13     5     6   ar
    14     6    16    1
    15    16    17    1
    16    17    18   ar
    17    18    19   ar
    18    19    20   ar
    19    20    21    1
    20    20    22   ar
    21    22    23    1
    22    22    24   ar
    23     6     1   ar
    24    24    17   ar
    25    14    15    1
@<TRIPOS>MOLECULE
*****
 24 25 0 0 0
SMALL
GASTEIGER

@<TRIPOS>ATOM
      1 C         140.9840  141.5682  167.1534 C.ar    1  UNL1        0.0265
      2 C         141.5778  142.5308  168.1386 C.ar    1  UNL1        0.0039
      3 C         142.5080  142.0339  169.2053 C.ar    1  UNL1        0.0713
      4 C         142.8445  140.5745  169.2867 C.ar    1  UNL1        0.0070
      5 C         142.2508  139.6119  168.3014 C.ar    1  UNL1        0.0372
      6 C         141.3206  140.1087  167.2347 C.ar    1  UNL1        0.1425
      7 C         143.1018  142.9966  170.1906 C.3     1  UNL1        0.4186
      8 F         143.6955  143.9593  171.1759 F       1  UNL1       -0.1659
      9 F         144.4083  142.2634  170.1197 F       1  UNL1       -0.1659
     10 F         141.7952  143.7299  170.2616 F       1  UNL1       -0.1659
     11 C         140.0538  142.0650  166.0867 C.3     1  UNL1        0.0799
     12 C         140.2601  143.4234  165.4848 C.3     1  UNL1        0.0221
     13 C         138.0890  141.6255  164.4446 C.3     1  UNL1        0.0861
     14 N         138.9172  141.2036  165.6219 N.3     1  UNL1       -0.2939
     15 H         139.3135  140.2923  165.3918 H       1  UNL1        0.1235
     16 O         140.7268  139.1460  166.2494 O.3     1  UNL1       -0.4537
     17 C         141.4652  138.8145  164.9866 C.ar    1  UNL1        0.1462
     18 C         140.9172  137.7822  164.0463 C.ar    1  UNL1        0.0384
     19 C         141.6556  137.4507  162.7834 C.ar    1  UNL1        0.0154
     20 C         142.9419  138.1515  162.4607 C.ar    1  UNL1        0.0684
     21 CL        143.6803  137.8201  161.1979 Cl      1  UNL1       -0.0814
     22 C         143.4899  139.1839  163.4009 C.ar    1  UNL1        0.0712
     23 CL        144.7762  139.8847  163.0782 Cl      1  UNL1       -0.0813
     24 C         142.7515  139.5154  164.6639 C.ar    1  UNL1        0.0497
@<TRIPOS>BOND
     1    13    14    1
     2    14    11    1
     3    11    12    1
     4    11     1    1
     5     1     2   ar
     6     2     3   ar
     7     3     7    1
     8     7     8    1
     9     7     9    1
    10     7    10    1
    11     3     4   ar
    12     4     5   ar
    13     5     6   ar
    14     6    16    1
    15    16    17    1
    16    17    18   ar
    17    18    19   ar
    18    19    20   ar
    19    20    21    1
    20    20    22   ar
    21    22    23    1
    22    22    24   ar
    23     6     1   ar
    24    24    17   ar
    25    14    15    1
@<TRIPOS>MOLECULE
*****
 24 25 0 0 0
SMALL
GASTEIGER

@<TRIPOS>ATOM
      1 C         139.1581  140.4721  166.1325 C.ar    1  UNL1        0.0265
      2 C         139.1744  139.8848  167.5126 C.ar    1  UNL1        0.0039
      3 C         139.8070  140.6419  168.6424 C.ar    1  UNL1        0.0713
      4 C         140.4234  141.9863  168.3922 C.ar    1  UNL1        0.0070
      5 C         140.4071  142.5736  167.0121 C.ar    1  UNL1        0.0372
      6 C         139.7744  141.8165  165.8822 C.ar    1  UNL1        0.1425
      7 C         139.8233  140.0545  170.0226 C.3     1  UNL1        0.4186
      8 F         139.8395  139.4671  171.4027 F       1  UNL1       -0.1659
      9 F         138.4043  140.4956  170.2271 F       1  UNL1       -0.1659
     10 F         141.2423  139.6133  169.8182 F       1  UNL1       -0.1659
     11 C         138.5254  139.7150  165.0026 C.3     1  UNL1        0.0799
     12 C         138.7545  138.2388  164.8678 C.3     1  UNL1        0.0221
     13 C         137.8280  140.1659  162.5409 C.3     1  UNL1        0.0861
     14 N         137.6637  140.4342  164.0075 N.3     1  UNL1       -0.2939
     15 H         136.6960  140.2119  164.2410 H       1  UNL1        0.1235
     16 O         139.7581  142.4039  164.5021 O.3     1  UNL1       -0.4537
     17 C         141.0201  142.4524  163.6927 C.ar    1  UNL1        0.1462
     18 C         141.3925  141.2950  162.8141 C.ar    1  UNL1        0.0384
     19 C         142.6545  141.3435  162.0047 C.ar    1  UNL1        0.0154
     20 C         143.5440  142.5493  162.0738 C.ar    1  UNL1        0.0684
     21 CL        144.8059  142.5978  161.2645 Cl      1  UNL1       -0.0814
     22 C         143.1716  143.7067  162.9524 C.ar    1  UNL1        0.0712
     23 CL        144.0611  144.9125  163.0215 Cl      1  UNL1       -0.0813
     24 C         141.9096  143.6582  163.7618 C.ar    1  UNL1        0.0497
@<TRIPOS>BOND
     1    13    14    1
     2    14    11    1
     3    11    12    1
     4    11     1    1
     5     1     2   ar
     6     2     3   ar
     7     3     7    1
     8     7     8    1
     9     7     9    1
    10     7    10    1
    11     3     4   ar
    12     4     5   ar
    13     5     6   ar
    14     6    16    1
    15    16    17    1
    16    17    18   ar
    17    18    19   ar
    18    19    20   ar
    19    20    21    1
    20    20    22   ar
    21    22    23    1
    22    22    24   ar
    23     6     1   ar
    24    24    17   ar
    25    14    15    1
