@<TRIPOS>MOLECULE
*****
 31 34 0 0 0
SMALL
GASTEIGER

@<TRIPOS>ATOM
      1 C         140.2610  143.8523  160.6134 C.2     1  UNL1        0.0620
      2 C         140.4711  142.3927  160.8883 C.2     1  UNL1        0.0622
      3 C         140.3076  141.8608  162.2812 C.2     1  UNL1        0.2254
      4 N         140.4487  140.4806  162.8515 N.2     1  UNL1       -0.0319
      5 C         140.1623  140.5552  164.3220 C.2     1  UNL1        0.4061
      6 N         139.8443  141.9815  164.6606 N.2     1  UNL1       -0.0486
      7 C         139.9341  142.7884  163.3993 C.3     1  UNL1        0.3025
      8 C         139.7241  144.2479  163.1244 C.2     1  UNL1        0.0474
      9 C         139.8875  144.7798  161.7314 C.2     1  UNL1        0.0714
     10 CL        139.6775  146.2395  161.4565 Cl      1  UNL1       -0.0811
     11 N         140.7513  145.4481  156.4345 N.3     1  UNL1       -0.2698
     12 C         139.6490  144.4785  156.7425 C.3     1  UNL1        0.0938
     13 C         139.4856  143.9466  158.1355 C.3     1  UNL1        0.1081
     14 N         140.4244  144.3843  159.2204 N.pl3   1  UNL1       -0.3039
     15 C         141.5267  145.3539  158.9123 C.3     1  UNL1        0.1081
     16 C         141.6901  145.8858  157.5194 C.3     1  UNL1        0.0938
     17 C         140.1501  147.1957  154.6084 C.3     1  UNL1        0.0188
     18 C         140.9147  145.9801  155.0416 C.3     1  UNL1        0.0722
     19 C         140.1892  139.4054  165.2850 C.2     1  UNL1        0.2592
     20 O         140.3713  138.0059  164.7770 O.2     1  UNL1       -0.2832
     21 C         140.0341  139.6552  166.7559 C.3     1  UNL1        0.0634
     22 C         141.5302  139.6589  166.6474 C.3     1  UNL1        0.0099
     23 C         142.3704  139.8810  167.8700 C.3     1  UNL1        0.0273
     24 C         141.7143  140.0994  169.2012 C.3     1  UNL1        0.0884
     25 C         141.5592  140.3492  170.6721 C.3     1  UNL1        0.0293
     26 O         143.1565  140.1898  169.6035 O.3     1  UNL1       -0.3867
     27 C         140.2183  140.0957  169.3097 C.3     1  UNL1        0.0273
     28 C         139.3782  139.8736  168.0870 C.3     1  UNL1        0.0099
     29 H         143.7185  140.0644  168.8229 H       1  UNL1        0.2102
     30 C         138.5919  139.5648  166.3535 C.3     1  UNL1        0.0075
     31 C         137.7043  138.5262  166.9727 C.3     1  UNL1        0.0004
@<TRIPOS>BOND
     1    17    18    1
     2    18    11    1
     3    11    12    1
     4    12    13    1
     5    13    14    1
     6    14     1    1
     7     1     2    2
     8     2     3    1
     9     3     4    2
    10     4     5    1
    11     5    19    1
    12    19    20    2
    13    19    21    1
    14    21    30    1
    15    30    31    1
    16    21    22    1
    17    22    23    1
    18    23    24    1
    19    24    25    1
    20    24    26    1
    21    24    27    1
    22    27    28    1
    23     5     6    2
    24     6     7    1
    25     7     8    1
    26     8     9    2
    27     9    10    1
    28    14    15    1
    29    15    16    1
    30    16    11    1
    31     9     1    1
    32     7     3    1
    33    28    21    1
    34    26    29    1
@<TRIPOS>MOLECULE
*****
 31 34 0 0 0
SMALL
GASTEIGER

@<TRIPOS>ATOM
      1 C         140.4969  140.4507  160.2345 C.2     1  UNL1        0.0620
      2 C         141.8547  140.0550  159.7343 C.2     1  UNL1        0.0622
      3 C         141.9828  139.0504  158.6278 C.2     1  UNL1        0.2254
      4 N         143.1786  138.4697  157.9330 N.2     1  UNL1       -0.0319
      5 C         142.6881  137.5019  156.8972 C.2     1  UNL1        0.4061
      6 N         141.1892  137.4845  156.9519 N.2     1  UNL1       -0.0486
      7 C         140.7533  138.4416  158.0215 C.3     1  UNL1        0.3025
      8 C         139.3956  138.8373  158.5216 C.2     1  UNL1        0.0474
      9 C         139.2675  139.8419  159.6282 C.2     1  UNL1        0.0714
     10 CL        137.9098  140.2376  160.1283 Cl      1  UNL1       -0.0811
     11 N         140.1124  143.4644  163.5541 N.3     1  UNL1       -0.2698
     12 C         140.1442  143.9218  162.1259 C.3     1  UNL1        0.0938
     13 C         140.2724  142.9172  161.0194 C.3     1  UNL1        0.1081
     14 N         140.3687  141.4553  161.3411 N.pl3   1  UNL1       -0.3039
     15 C         140.3369  140.9979  162.7693 C.3     1  UNL1        0.1081
     16 C         140.2088  142.0025  163.8758 C.3     1  UNL1        0.0938
     17 C         138.6339  144.7904  165.2291 C.3     1  UNL1        0.0188
     18 C         139.9843  144.4689  164.6607 C.3     1  UNL1        0.0722
     19 C         143.5459  136.6934  155.9696 C.2     1  UNL1        0.2592
     20 O         144.8907  137.2094  155.5506 O.2     1  UNL1       -0.2832
     21 C         143.0590  135.3690  155.4608 C.3     1  UNL1        0.0634
     22 C         143.4439  134.9855  156.8590 C.3     1  UNL1        0.0099
     23 C         143.2670  133.5705  157.3242 C.3     1  UNL1        0.0273
     24 C         142.7051  132.5390  156.3912 C.3     1  UNL1        0.0884
     25 C         142.2182  131.2145  155.8825 C.3     1  UNL1        0.0293
     26 O         142.9209  131.6955  157.6127 O.3     1  UNL1       -0.3867
     27 C         142.3203  132.9225  154.9932 C.3     1  UNL1        0.0273
     28 C         142.4972  134.3375  154.5279 C.3     1  UNL1        0.0099
     29 H         143.2920  132.2429  158.3222 H       1  UNL1        0.2102
     30 C         142.8433  136.2125  154.2394 C.3     1  UNL1        0.0075
     31 C         141.5604  136.1034  153.4697 C.3     1  UNL1        0.0004
@<TRIPOS>BOND
     1    17    18    1
     2    18    11    1
     3    11    12    1
     4    12    13    1
     5    13    14    1
     6    14     1    1
     7     1     2    2
     8     2     3    1
     9     3     4    2
    10     4     5    1
    11     5    19    1
    12    19    20    2
    13    19    21    1
    14    21    30    1
    15    30    31    1
    16    21    22    1
    17    22    23    1
    18    23    24    1
    19    24    25    1
    20    24    26    1
    21    24    27    1
    22    27    28    1
    23     5     6    2
    24     6     7    1
    25     7     8    1
    26     8     9    2
    27     9    10    1
    28    14    15    1
    29    15    16    1
    30    16    11    1
    31     9     1    1
    32     7     3    1
    33    28    21    1
    34    26    29    1
@<TRIPOS>MOLECULE
*****
 31 34 0 0 0
SMALL
GASTEIGER

@<TRIPOS>ATOM
      1 C         140.4181  143.8747  160.7855 C.2     1  UNL1        0.0620
      2 C         140.7092  142.4346  161.0882 C.2     1  UNL1        0.0622
      3 C         140.5859  141.9238  162.4931 C.2     1  UNL1        0.2254
      4 N         140.8061  140.5655  163.0902 N.2     1  UNL1       -0.0319
      5 C         140.5278  140.6552  164.5614 C.2     1  UNL1        0.4061
      6 N         140.1357  142.0690  164.8736 N.2     1  UNL1       -0.0486
      7 C         140.1716  142.8530  163.5953 C.3     1  UNL1        0.3025
      8 C         139.8805  144.2930  163.2926 C.2     1  UNL1        0.0474
      9 C         140.0038  144.8038  161.8877 C.2     1  UNL1        0.0714
     10 CL        139.7127  146.2439  161.5850 Cl      1  UNL1       -0.0811
     11 N         140.7880  145.4071  156.5706 N.3     1  UNL1       -0.2698
     12 C         139.6886  144.4510  156.9272 C.3     1  UNL1        0.0938
     13 C         139.5653  143.9402  158.3322 C.3     1  UNL1        0.1081
     14 N         140.5414  144.3855  159.3805 N.pl3   1  UNL1       -0.3039
     15 C         141.6408  145.3416  159.0238 C.3     1  UNL1        0.1081
     16 C         141.7641  145.8524  157.6189 C.3     1  UNL1        0.0938
     17 C         140.2138  147.1837  154.7639 C.3     1  UNL1        0.0188
     18 C         140.9113  145.9179  155.1657 C.3     1  UNL1        0.0722
     19 C         140.6247  139.5289  165.5473 C.2     1  UNL1        0.2592
     20 O         140.1210  138.1648  165.1795 O.2     1  UNL1       -0.2832
     21 C         141.2253  139.7668  166.9011 C.3     1  UNL1        0.0634
     22 C         139.7678  139.8655  167.2417 C.3     1  UNL1        0.0099
     23 C         139.3446  140.1390  168.6546 C.3     1  UNL1        0.0273
     24 C         140.3789  140.3139  169.7268 C.3     1  UNL1        0.0884
     25 C         140.9795  140.5518  171.0805 C.3     1  UNL1        0.0293
     26 O         139.1300  140.4952  170.5376 O.3     1  UNL1       -0.3867
     27 C         141.8364  140.2153  169.3861 C.3     1  UNL1        0.0273
     28 C         142.2596  139.9417  167.9733 C.3     1  UNL1        0.0099
     29 H         138.3548  140.4065  169.9614 H       1  UNL1        0.2102
     30 C         142.4742  139.5855  166.0903 C.3     1  UNL1        0.0075
     31 C         143.4223  138.4688  166.4129 C.3     1  UNL1        0.0004
@<TRIPOS>BOND
     1    17    18    1
     2    18    11    1
     3    11    12    1
     4    12    13    1
     5    13    14    1
     6    14     1    1
     7     1     2    2
     8     2     3    1
     9     3     4    2
    10     4     5    1
    11     5    19    1
    12    19    20    2
    13    19    21    1
    14    21    30    1
    15    30    31    1
    16    21    22    1
    17    22    23    1
    18    23    24    1
    19    24    25    1
    20    24    26    1
    21    24    27    1
    22    27    28    1
    23     5     6    2
    24     6     7    1
    25     7     8    1
    26     8     9    2
    27     9    10    1
    28    14    15    1
    29    15    16    1
    30    16    11    1
    31     9     1    1
    32     7     3    1
    33    28    21    1
    34    26    29    1
@<TRIPOS>MOLECULE
*****
 31 34 0 0 0
SMALL
GASTEIGER

@<TRIPOS>ATOM
      1 C         141.9376  143.4050  160.6593 C.2     1  UNL1        0.0620
      2 C         141.2678  143.4326  162.0012 C.2     1  UNL1        0.0622
      3 C         142.0152  142.9837  163.2218 C.2     1  UNL1        0.2254
      4 N         141.6199  142.8997  164.6663 N.2     1  UNL1       -0.0319
      5 C         142.7928  142.3712  165.4378 C.2     1  UNL1        0.4061
      6 N         143.9129  142.1286  164.4700 N.2     1  UNL1       -0.0486
      7 C         143.4323  142.5072  163.1005 C.3     1  UNL1        0.3025
      8 C         144.1020  142.4796  161.7585 C.2     1  UNL1        0.0474
      9 C         143.3546  142.9285  160.5380 C.2     1  UNL1        0.0714
     10 CL        144.0244  142.9008  159.1960 Cl      1  UNL1       -0.0811
     11 N         139.6953  144.7517  156.9974 N.3     1  UNL1       -0.2698
     12 C         139.6953  143.3030  157.3863 C.3     1  UNL1        0.0938
     13 C         140.4427  142.8541  158.6069 C.3     1  UNL1        0.1081
     14 N         141.1901  143.8539  159.4386 N.pl3   1  UNL1       -0.3039
     15 C         141.1901  145.3026  159.0498 C.3     1  UNL1        0.1081
     16 C         140.4426  145.7515  157.8292 C.3     1  UNL1        0.0938
     17 C         138.9500  146.6491  155.3867 C.3     1  UNL1        0.0188
     18 C         138.9479  145.2007  155.7769 C.3     1  UNL1        0.0722
     19 C         142.8377  142.1280  166.9172 C.2     1  UNL1        0.2592
     20 O         143.8889  142.7934  167.7552 O.2     1  UNL1       -0.2832
     21 C         141.8313  141.2193  167.5588 C.3     1  UNL1        0.0634
     22 C         141.5466  142.4902  168.3031 C.3     1  UNL1        0.0099
     23 C         140.4758  142.5206  169.3531 C.3     1  UNL1        0.0273
     24 C         139.6897  141.2802  169.6588 C.3     1  UNL1        0.0884
     25 C         138.6834  140.3715  170.3003 C.3     1  UNL1        0.0293
     26 O         139.0555  142.2354  170.6259 O.3     1  UNL1       -0.3867
     27 C         139.9744  140.0094  168.9145 C.3     1  UNL1        0.0273
     28 C         141.0452  139.9789  167.8645 C.3     1  UNL1        0.0099
     29 H         139.4737  143.1065  170.5411 H       1  UNL1        0.2102
     30 C         142.4655  140.2641  166.5917 C.3     1  UNL1        0.0075
     31 C         143.0179  138.9580  167.0808 C.3     1  UNL1        0.0004
@<TRIPOS>BOND
     1    17    18    1
     2    18    11    1
     3    11    12    1
     4    12    13    1
     5    13    14    1
     6    14     1    1
     7     1     2    2
     8     2     3    1
     9     3     4    2
    10     4     5    1
    11     5    19    1
    12    19    20    2
    13    19    21    1
    14    21    30    1
    15    30    31    1
    16    21    22    1
    17    22    23    1
    18    23    24    1
    19    24    25    1
    20    24    26    1
    21    24    27    1
    22    27    28    1
    23     5     6    2
    24     6     7    1
    25     7     8    1
    26     8     9    2
    27     9    10    1
    28    14    15    1
    29    15    16    1
    30    16    11    1
    31     9     1    1
    32     7     3    1
    33    28    21    1
    34    26    29    1
@<TRIPOS>MOLECULE
*****
 31 34 0 0 0
SMALL
GASTEIGER

@<TRIPOS>ATOM
      1 C         140.4822  139.3977  161.3661 C.2     1  UNL1        0.0620
      2 C         141.7499  138.7483  160.8957 C.2     1  UNL1        0.0622
      3 C         141.8791  138.3012  159.4697 C.2     1  UNL1        0.2254
      4 N         142.9980  137.6366  158.7237 N.2     1  UNL1       -0.0319
      5 C         142.5510  137.4281  157.3071 C.2     1  UNL1        0.4061
      6 N         141.1559  137.9639  157.1776 N.2     1  UNL1       -0.0486
      7 C         140.7407  138.5035  158.5142 C.3     1  UNL1        0.3025
      8 C         139.4730  139.1529  158.9846 C.2     1  UNL1        0.0474
      9 C         139.3438  139.6000  160.4106 C.2     1  UNL1        0.0714
     10 CL        138.0761  140.2494  160.8810 Cl      1  UNL1       -0.0811
     11 N         140.0946  140.7391  165.6440 N.3     1  UNL1       -0.2698
     12 C         140.6505  141.6750  164.6120 C.3     1  UNL1        0.0938
     13 C         140.7797  141.2279  163.1860 C.3     1  UNL1        0.1081
     14 N         140.3530  139.8449  162.7921 N.pl3   1  UNL1       -0.3039
     15 C         139.7971  138.9090  163.8241 C.3     1  UNL1        0.1081
     16 C         139.6679  139.3561  165.2501 C.3     1  UNL1        0.0938
     17 C         139.9427  140.1719  168.1749 C.3     1  UNL1        0.0188
     18 C         139.9654  141.1862  167.0700 C.3     1  UNL1        0.0722
     19 C         143.3574  136.7951  156.2122 C.2     1  UNL1        0.2592
     20 O         144.6100  137.4597  155.7231 O.2     1  UNL1       -0.2832
     21 C         142.9113  135.4974  155.6064 C.3     1  UNL1        0.0634
     22 C         143.3033  135.0248  156.9751 C.3     1  UNL1        0.0099
     23 C         143.1668  133.5752  157.3357 C.3     1  UNL1        0.0273
     24 C         142.6383  132.5981  156.3277 C.3     1  UNL1        0.0884
     25 C         142.1922  131.3005  155.7219 C.3     1  UNL1        0.0293
     26 O         142.8753  131.6750  157.4859 O.3     1  UNL1       -0.3867
     27 C         142.2464  133.0707  154.9591 C.3     1  UNL1        0.0273
     28 C         142.3829  134.5203  154.5984 C.3     1  UNL1        0.0099
     29 H         143.2281  132.1801  158.2351 H       1  UNL1        0.2102
     30 C         142.6743  136.4205  154.4482 C.3     1  UNL1        0.0075
     31 C         141.4178  136.2999  153.6378 C.3     1  UNL1        0.0004
@<TRIPOS>BOND
     1    17    18    1
     2    18    11    1
     3    11    12    1
     4    12    13    1
     5    13    14    1
     6    14     1    1
     7     1     2    2
     8     2     3    1
     9     3     4    2
    10     4     5    1
    11     5    19    1
    12    19    20    2
    13    19    21    1
    14    21    30    1
    15    30    31    1
    16    21    22    1
    17    22    23    1
    18    23    24    1
    19    24    25    1
    20    24    26    1
    21    24    27    1
    22    27    28    1
    23     5     6    2
    24     6     7    1
    25     7     8    1
    26     8     9    2
    27     9    10    1
    28    14    15    1
    29    15    16    1
    30    16    11    1
    31     9     1    1
    32     7     3    1
    33    28    21    1
    34    26    29    1
@<TRIPOS>MOLECULE
*****
 31 34 0 0 0
SMALL
GASTEIGER

@<TRIPOS>ATOM
      1 C         141.9881  142.6747  160.7822 C.2     1  UNL1        0.0620
      2 C         141.1760  142.3631  162.0043 C.2     1  UNL1        0.0622
      3 C         141.8071  141.6474  163.1617 C.2     1  UNL1        0.2254
      4 N         141.2617  141.2083  164.4883 N.2     1  UNL1       -0.0319
      5 C         142.3678  140.5327  165.2434 C.2     1  UNL1        0.4061
      6 N         143.5967  140.5544  164.3835 N.2     1  UNL1       -0.0486
      7 C         143.2502  141.2433  163.0970 C.3     1  UNL1        0.3025
      8 C         144.0622  141.5549  161.8749 C.2     1  UNL1        0.0474
      9 C         143.4311  142.2705  160.7175 C.2     1  UNL1        0.0714
     10 CL        144.2432  142.5821  159.4954 Cl      1  UNL1       -0.0811
     11 N         140.0949  144.8217  157.3100 N.3     1  UNL1       -0.2698
     12 C         140.0586  143.3236  157.3754 C.3     1  UNL1        0.0938
     13 C         140.6896  142.6079  158.5328 C.3     1  UNL1        0.1081
     14 N         141.3570  143.3904  159.6248 N.pl3   1  UNL1       -0.3039
     15 C         141.3933  144.8885  159.5594 C.3     1  UNL1        0.1081
     16 C         140.7622  145.6042  158.4020 C.3     1  UNL1        0.0938
     17 C         139.2949  147.0274  156.1941 C.3     1  UNL1        0.0188
     18 C         139.4638  145.5375  156.1527 C.3     1  UNL1        0.0722
     19 C         142.2634  139.9396  166.6172 C.2     1  UNL1        0.2592
     20 O         143.1785  138.8228  167.0235 O.2     1  UNL1       -0.2832
     21 C         141.2437  140.4634  167.5847 C.3     1  UNL1        0.0634
     22 C         142.3761  141.4069  167.8634 C.3     1  UNL1        0.0099
     23 C         142.2186  142.4833  168.8961 C.3     1  UNL1        0.0273
     24 C         140.9286  142.6162  169.6501 C.3     1  UNL1        0.0884
     25 C         139.9090  143.1400  170.6176 C.3     1  UNL1        0.0293
     26 O         141.7069  143.7416  170.2648 O.3     1  UNL1       -0.3867
     27 C         139.7964  141.6727  169.3714 C.3     1  UNL1        0.0273
     28 C         139.9539  140.5963  168.3387 C.3     1  UNL1        0.0099
     29 H         142.5895  143.7809  169.8644 H       1  UNL1        0.2102
     30 C         140.4655  139.3380  166.9700 C.3     1  UNL1        0.0075
     31 C         138.9917  139.4865  166.7340 C.3     1  UNL1        0.0004
@<TRIPOS>BOND
     1    17    18    1
     2    18    11    1
     3    11    12    1
     4    12    13    1
     5    13    14    1
     6    14     1    1
     7     1     2    2
     8     2     3    1
     9     3     4    2
    10     4     5    1
    11     5    19    1
    12    19    20    2
    13    19    21    1
    14    21    30    1
    15    30    31    1
    16    21    22    1
    17    22    23    1
    18    23    24    1
    19    24    25    1
    20    24    26    1
    21    24    27    1
    22    27    28    1
    23     5     6    2
    24     6     7    1
    25     7     8    1
    26     8     9    2
    27     9    10    1
    28    14    15    1
    29    15    16    1
    30    16    11    1
    31     9     1    1
    32     7     3    1
    33    28    21    1
    34    26    29    1
@<TRIPOS>MOLECULE
*****
 31 34 0 0 0
SMALL
GASTEIGER

@<TRIPOS>ATOM
      1 C         142.6076  142.9868  158.4875 C.2     1  UNL1        0.0620
      2 C         142.2382  142.1040  159.6427 C.2     1  UNL1        0.0622
      3 C         141.0803  142.4678  160.5241 C.2     1  UNL1        0.2254
      4 N         140.4853  141.7977  161.7270 N.2     1  UNL1       -0.0319
      5 C         139.3291  142.6300  162.1967 C.2     1  UNL1        0.4061
      6 N         139.2096  143.8144  161.2841 N.2     1  UNL1       -0.0486
      7 C         140.2919  143.7142  160.2504 C.3     1  UNL1        0.3025
      8 C         140.6614  144.5968  159.0952 C.2     1  UNL1        0.0474
      9 C         141.8193  144.2331  158.2138 C.2     1  UNL1        0.0714
     10 CL        142.1887  145.1158  157.0586 Cl      1  UNL1       -0.0811
     11 N         146.0814  141.8955  155.8431 N.3     1  UNL1       -0.2698
     12 C         146.3253  142.3571  157.2493 C.3     1  UNL1        0.0938
     13 C         145.1674  142.7208  158.1308 C.3     1  UNL1        0.1081
     14 N         143.7656  142.6230  157.6060 N.pl3   1  UNL1       -0.3039
     15 C         143.5217  142.1614  156.1998 C.3     1  UNL1        0.1081
     16 C         144.6796  141.7977  155.3183 C.3     1  UNL1        0.0938
     17 C         148.6416  141.8229  155.4073 C.3     1  UNL1        0.0188
     18 C         147.2392  141.5318  154.9616 C.3     1  UNL1        0.0722
     19 C         138.4473  142.3304  163.3725 C.2     1  UNL1        0.2592
     20 O         136.9662  142.1886  163.1824 O.2     1  UNL1       -0.2832
     21 C         139.0466  142.1726  164.7385 C.3     1  UNL1        0.0634
     22 C         138.3665  140.8430  164.5972 C.3     1  UNL1        0.0099
     23 C         138.4496  139.8364  165.7062 C.3     1  UNL1        0.0273
     24 C         139.2128  140.1594  166.9566 C.3     1  UNL1        0.0884
     25 C         139.8121  140.0016  168.3226 C.3     1  UNL1        0.0293
     26 O         138.7409  138.7751  167.2897 O.3     1  UNL1       -0.3867
     27 C         139.8928  141.4889  167.0978 C.3     1  UNL1        0.0273
     28 C         139.8097  142.4955  165.9888 C.3     1  UNL1        0.0099
     29 H         138.2175  138.4256  166.5516 H       1  UNL1        0.2102
     30 C         139.5185  143.5569  164.4054 C.3     1  UNL1        0.0075
     31 C         138.8659  144.7461  165.0458 C.3     1  UNL1        0.0004
@<TRIPOS>BOND
     1    17    18    1
     2    18    11    1
     3    11    12    1
     4    12    13    1
     5    13    14    1
     6    14     1    1
     7     1     2    2
     8     2     3    1
     9     3     4    2
    10     4     5    1
    11     5    19    1
    12    19    20    2
    13    19    21    1
    14    21    30    1
    15    30    31    1
    16    21    22    1
    17    22    23    1
    18    23    24    1
    19    24    25    1
    20    24    26    1
    21    24    27    1
    22    27    28    1
    23     5     6    2
    24     6     7    1
    25     7     8    1
    26     8     9    2
    27     9    10    1
    28    14    15    1
    29    15    16    1
    30    16    11    1
    31     9     1    1
    32     7     3    1
    33    28    21    1
    34    26    29    1
@<TRIPOS>MOLECULE
*****
 31 34 0 0 0
SMALL
GASTEIGER

@<TRIPOS>ATOM
      1 C         142.4485  139.6214  157.6722 C.2     1  UNL1        0.0620
      2 C         142.1770  139.8476  159.1301 C.2     1  UNL1        0.0622
      3 C         142.4900  141.1753  159.7540 C.2     1  UNL1        0.2254
      4 N         142.3322  141.6882  161.1547 N.2     1  UNL1       -0.0319
      5 C         142.8193  143.1065  161.1865 C.2     1  UNL1        0.4061
      6 N         143.2782  143.4702  159.8055 N.2     1  UNL1       -0.0486
      7 C         143.0747  142.2766  158.9201 C.3     1  UNL1        0.3025
      8 C         143.3462  142.0503  157.4624 C.2     1  UNL1        0.0474
      9 C         143.0331  140.7227  156.8385 C.2     1  UNL1        0.0714
     10 CL        143.3047  140.4964  155.3807 Cl      1  UNL1       -0.0811
     11 N         141.5092  135.6384  155.8004 N.3     1  UNL1       -0.2698
     12 C         140.5871  136.8024  155.5892 C.3     1  UNL1        0.0938
     13 C         140.9002  138.1301  156.2132 C.3     1  UNL1        0.1081
     14 N         142.1354  138.2936  157.0483 N.pl3   1  UNL1       -0.3039
     15 C         143.0576  137.1296  157.2595 C.3     1  UNL1        0.1081
     16 C         142.7445  135.8019  156.6355 C.3     1  UNL1        0.0938
     17 C         141.8283  133.0614  155.7148 C.3     1  UNL1        0.0188
     18 C         141.1962  134.3107  155.1765 C.3     1  UNL1        0.0722
     19 C         142.8433  144.0037  162.3884 C.2     1  UNL1        0.2592
     20 O         143.9730  144.9719  162.5792 O.2     1  UNL1       -0.2832
     21 C         141.7375  143.9328  163.3995 C.3     1  UNL1        0.0634
     22 C         140.9488  144.2945  162.1758 C.3     1  UNL1        0.0099
     23 C         139.4616  144.4682  162.2663 C.3     1  UNL1        0.0273
     24 C         138.7632  144.2802  163.5804 C.3     1  UNL1        0.0884
     25 C         137.6574  144.2093  164.5915 C.3     1  UNL1        0.0293
     26 O         137.5905  144.6173  162.7080 O.3     1  UNL1       -0.3867
     27 C         139.5519  143.9186  164.8039 C.3     1  UNL1        0.0273
     28 C         141.0390  143.7449  164.7135 C.3     1  UNL1        0.0099
     29 H         137.8962  144.7701  161.8002 H       1  UNL1        0.2102
     30 C         142.9102  143.5958  164.2719 C.3     1  UNL1        0.0075
     31 C         142.9429  142.2926  165.0139 C.3     1  UNL1        0.0004
@<TRIPOS>BOND
     1    17    18    1
     2    18    11    1
     3    11    12    1
     4    12    13    1
     5    13    14    1
     6    14     1    1
     7     1     2    2
     8     2     3    1
     9     3     4    2
    10     4     5    1
    11     5    19    1
    12    19    20    2
    13    19    21    1
    14    21    30    1
    15    30    31    1
    16    21    22    1
    17    22    23    1
    18    23    24    1
    19    24    25    1
    20    24    26    1
    21    24    27    1
    22    27    28    1
    23     5     6    2
    24     6     7    1
    25     7     8    1
    26     8     9    2
    27     9    10    1
    28    14    15    1
    29    15    16    1
    30    16    11    1
    31     9     1    1
    32     7     3    1
    33    28    21    1
    34    26    29    1
@<TRIPOS>MOLECULE
*****
 31 34 0 0 0
SMALL
GASTEIGER

@<TRIPOS>ATOM
      1 C         144.7435  141.8200  157.8827 C.2     1  UNL1        0.0620
      2 C         145.0256  142.7762  159.0034 C.2     1  UNL1        0.0622
      3 C         144.5199  142.4828  160.3848 C.2     1  UNL1        0.2254
      4 N         144.6405  143.2329  161.6781 N.2     1  UNL1       -0.0319
      5 C         143.9274  142.4468  162.7381 C.2     1  UNL1        0.4061
      6 N         143.3660  141.2109  162.0998 N.2     1  UNL1       -0.0486
      7 C         143.7322  141.2331  160.6454 C.3     1  UNL1        0.3025
      8 C         143.4502  140.2769  159.5246 C.2     1  UNL1        0.0474
      9 C         143.9559  140.5704  158.1432 C.2     1  UNL1        0.0714
     10 CL        143.6738  139.6141  157.0225 Cl      1  UNL1       -0.0811
     11 N         146.2605  142.7004  153.7385 N.3     1  UNL1       -0.2698
     12 C         144.8568  143.0694  154.1175 C.3     1  UNL1        0.0938
     13 C         144.3512  142.7759  155.4988 C.3     1  UNL1        0.1081
     14 N         145.2492  142.1134  156.5012 N.pl3   1  UNL1       -0.3039
     15 C         146.6528  141.7444  156.1222 C.3     1  UNL1        0.1081
     16 C         147.1584  142.0379  154.7408 C.3     1  UNL1        0.0938
     17 C         148.2416  143.0843  152.1021 C.3     1  UNL1        0.0188
     18 C         146.7662  142.9938  152.3571 C.3     1  UNL1        0.0722
     19 C         143.7983  142.8294  164.1827 C.2     1  UNL1        0.2592
     20 O         145.0260  143.1172  164.9950 O.2     1  UNL1       -0.2832
     21 C         142.4414  142.9242  164.8151 C.3     1  UNL1        0.0634
     22 C         142.3174  143.9939  163.7708 C.3     1  UNL1        0.0099
     23 C         141.0433  144.7754  163.6452 C.3     1  UNL1        0.0273
     24 C         139.8931  144.4873  164.5641 C.3     1  UNL1        0.0884
     25 C         138.5362  144.5821  165.1964 C.3     1  UNL1        0.0293
     26 O         139.2979  145.5898  163.7394 O.3     1  UNL1       -0.3867
     27 C         140.0171  143.4176  165.6083 C.3     1  UNL1        0.0273
     28 C         141.2913  142.6361  165.7338 C.3     1  UNL1        0.0099
     29 H         139.9456  145.8873  163.0815 H       1  UNL1        0.2102
     30 C         143.0366  141.8216  165.6397 C.3     1  UNL1        0.0075
     31 C         142.4305  140.4499  165.6074 C.3     1  UNL1        0.0004
@<TRIPOS>BOND
     1    17    18    1
     2    18    11    1
     3    11    12    1
     4    12    13    1
     5    13    14    1
     6    14     1    1
     7     1     2    2
     8     2     3    1
     9     3     4    2
    10     4     5    1
    11     5    19    1
    12    19    20    2
    13    19    21    1
    14    21    30    1
    15    30    31    1
    16    21    22    1
    17    22    23    1
    18    23    24    1
    19    24    25    1
    20    24    26    1
    21    24    27    1
    22    27    28    1
    23     5     6    2
    24     6     7    1
    25     7     8    1
    26     8     9    2
    27     9    10    1
    28    14    15    1
    29    15    16    1
    30    16    11    1
    31     9     1    1
    32     7     3    1
    33    28    21    1
    34    26    29    1
