@<TRIPOS>MOLECULE
*****
 30 34 0 0 0
SMALL
GASTEIGER

@<TRIPOS>ATOM
      1 C         142.6933  141.4556  164.5711 C.ar    1  UNL1        0.0177
      2 C         143.4491  142.2353  165.6060 C.ar    1  UNL1        0.0046
      3 C         142.9733  142.2512  167.0284 C.ar    1  UNL1        0.0367
      4 C         141.7418  141.4875  167.4160 C.ar    1  UNL1        0.1360
      5 C         140.9861  140.7079  166.3812 C.ar    1  UNL1        0.0357
      6 C         141.4618  140.6919  164.9586 C.ar    1  UNL1        0.0021
      7 C         139.7546  139.9442  166.7688 C.3     1  UNL1        0.1580
      8 C         138.5130  139.1366  167.0059 C.3     1  UNL1        0.2351
      9 O         138.0988  138.5285  165.6987 O.2     1  UNL1       -0.4478
     10 C         139.0844  138.9602  164.6537 C.2     1  UNL1        0.2770
     11 N         139.0524  138.5832  163.2023 N.pl3   1  UNL1       -0.3133
     12 N         140.1078  139.8351  165.3150 N.2     1  UNL1       -0.2202
     13 C         139.2789  139.9601  168.1912 C.3     1  UNL1        0.1141
     14 C         139.6225  140.1732  168.0831 C.3     1  UNL1        0.1501
     15 O         139.2613  139.9492  168.1967 O.3     1  UNL1       -0.3532
     16 C         139.6225  140.1732  168.0831 C.3     1  UNL1        0.1501
     17 C         140.0346  140.7398  169.2260 C.3     1  UNL1        0.1398
     18 C         140.4076  141.3247  170.5559 C.3     1  UNL1        0.0438
     19 C         138.9327  140.1792  170.0756 C.3     1  UNL1        0.0438
     20 O         141.2661  141.5035  168.8385 O.3     1  UNL1       -0.4826
     21 H         138.3361  138.0005  162.8607 H       1  UNL1        0.1466
     22 H         139.7476  138.9185  162.5911 H       1  UNL1        0.1466
     23 C         143.9053  140.1170  161.0370 C.ar    1  UNL1        0.1418
     24 C         144.1205  141.4077  160.3037 C.ar    1  UNL1        0.0576
     25 C         143.8601  142.7143  160.9927 C.ar    1  UNL1        0.1019
     26 N         143.3843  142.7303  162.4153 N.ar    1  UNL1       -0.2436
     27 C         143.1690  141.4396  163.1486 C.ar    1  UNL1        0.0843
     28 C         143.4295  140.1330  162.4595 C.ar    1  UNL1        0.0560
     29 C         143.2583  137.6407  160.5902 C.3     1  UNL1        0.2525
     30 O         144.1657  138.8104  160.3480 O.3     1  UNL1       -0.4713
@<TRIPOS>BOND
     1    29    30    1
     2    30    23    1
     3    23    24   ar
     4    24    25   ar
     5    25    26   ar
     6    26    27   ar
     7    27     1    1
     8     1     2   ar
     9     2     3   ar
    10     3     4   ar
    11     4     5   ar
    12     5     6   ar
    13     5     7    1
    14     7     8    1
    15     8     9    1
    16     9    10    1
    17    10    11    1
    18    10    12    2
    19     7    13    1
    20    13    14    1
    21    14    15    1
    22    15    16    1
    23    13    17    1
    24    17    18    1
    25    17    19    1
    26    17    20    1
    27    27    28   ar
    28    28    23   ar
    29     6     1   ar
    30    12     7    1
    31    16    13    1
    32    20     4    1
    33    11    21    1
    34    11    22    1
@<TRIPOS>MOLECULE
*****
 30 34 0 0 0
SMALL
GASTEIGER

@<TRIPOS>ATOM
      1 C         142.5902  141.7048  164.8220 C.ar    1  UNL1        0.0177
      2 C         143.4103  142.3710  165.8868 C.ar    1  UNL1        0.0046
      3 C         143.0030  142.2606  167.3262 C.ar    1  UNL1        0.0367
      4 C         141.7757  141.4840  167.7009 C.ar    1  UNL1        0.1360
      5 C         140.9556  140.8178  166.6362 C.ar    1  UNL1        0.0357
      6 C         141.3629  140.9282  165.1967 C.ar    1  UNL1        0.0021
      7 C         139.7282  140.0412  167.0109 C.3     1  UNL1        0.1580
      8 C         138.4827  139.2352  167.2325 C.3     1  UNL1        0.2351
      9 O         137.9943  138.7598  165.8961 O.2     1  UNL1       -0.4478
     10 C         138.9380  139.2719  164.8488 C.2     1  UNL1        0.2770
     11 N         138.8293  139.0340  163.3718 N.pl3   1  UNL1       -0.3133
     12 N         140.0097  140.0639  165.5377 N.2     1  UNL1       -0.2202
     13 C         139.3209  139.9307  168.4503 C.3     1  UNL1        0.1141
     14 C         139.6634  140.1474  168.3458 C.3     1  UNL1        0.1501
     15 O         139.3034  139.9197  168.4557 O.3     1  UNL1       -0.3532
     16 C         139.6634  140.1474  168.3458 C.3     1  UNL1        0.1501
     17 C         140.1410  140.5970  169.5150 C.3     1  UNL1        0.1398
     18 C         140.5888  141.0478  170.8737 C.3     1  UNL1        0.0438
     19 C         139.0691  139.9769  170.3617 C.3     1  UNL1        0.0438
     20 O         141.3684  141.3736  169.1403 O.3     1  UNL1       -0.4826
     21 H         138.0857  138.4978  163.0130 H       1  UNL1        0.1466
     22 H         139.5016  139.4140  162.7612 H       1  UNL1        0.1466
     23 C         142.9642  143.1048  161.1274 C.ar    1  UNL1        0.1418
     24 C         143.8121  142.0361  160.5038 C.ar    1  UNL1        0.0576
     25 C         144.2527  140.8570  161.3195 C.ar    1  UNL1        0.1019
     26 N         143.8454  140.7465  162.7590 N.ar    1  UNL1       -0.2436
     27 C         142.9975  141.8152  163.3826 C.ar    1  UNL1        0.0843
     28 C         142.5569  142.9944  162.5668 C.ar    1  UNL1        0.0560
     29 C         141.2320  144.9765  160.6313 C.3     1  UNL1        0.2525
     30 O         142.5236  144.2839  160.3117 O.3     1  UNL1       -0.4713
@<TRIPOS>BOND
     1    29    30    1
     2    30    23    1
     3    23    24   ar
     4    24    25   ar
     5    25    26   ar
     6    26    27   ar
     7    27     1    1
     8     1     2   ar
     9     2     3   ar
    10     3     4   ar
    11     4     5   ar
    12     5     6   ar
    13     5     7    1
    14     7     8    1
    15     8     9    1
    16     9    10    1
    17    10    11    1
    18    10    12    2
    19     7    13    1
    20    13    14    1
    21    14    15    1
    22    15    16    1
    23    13    17    1
    24    17    18    1
    25    17    19    1
    26    17    20    1
    27    27    28   ar
    28    28    23   ar
    29     6     1   ar
    30    12     7    1
    31    16    13    1
    32    20     4    1
    33    11    21    1
    34    11    22    1
@<TRIPOS>MOLECULE
*****
 30 34 0 0 0
SMALL
GASTEIGER

@<TRIPOS>ATOM
      1 C         139.4663  140.4706  164.7980 C.ar    1  UNL1        0.0177
      2 C         138.8201  139.8031  165.9757 C.ar    1  UNL1        0.0046
      3 C         139.4362  139.9247  167.3379 C.ar    1  UNL1        0.0367
      4 C         140.6984  140.7138  167.5225 C.ar    1  UNL1        0.1360
      5 C         141.3445  141.3814  166.3448 C.ar    1  UNL1        0.0357
      6 C         140.7285  141.2598  164.9826 C.ar    1  UNL1        0.0021
      7 C         142.6068  142.1705  166.5294 C.3     1  UNL1        0.1580
      8 C         143.8639  142.9883  166.5597 C.3     1  UNL1        0.2351
      9 O         144.1433  143.4607  165.1637 O.2     1  UNL1       -0.4478
     10 C         143.0589  142.9349  164.2706 C.2     1  UNL1        0.2770
     11 N         142.9443  143.1659  162.7930 N.pl3   1  UNL1       -0.3133
     12 N         142.1092  142.1375  165.1146 N.2     1  UNL1       -0.2202
     13 C         143.2228  142.2921  167.8916 C.3     1  UNL1        0.1141
     14 C         142.8707  142.0719  167.8401 C.3     1  UNL1        0.1501
     15 O         143.2408  142.3034  167.8943 O.3     1  UNL1       -0.3532
     16 C         142.8707  142.0719  167.8401 C.3     1  UNL1        0.1501
     17 C         142.5767  141.6246  169.0692 C.3     1  UNL1        0.1398
     18 C         142.3404  141.1771  170.4813 C.3     1  UNL1        0.0438
     19 C         143.7569  142.2583  169.7443 C.3     1  UNL1        0.0438
     20 O         141.3145  140.8354  168.8847 O.3     1  UNL1       -0.4826
     21 H         143.6212  143.7065  162.3253 H       1  UNL1        0.1466
     22 H         142.1921  142.7769  162.2909 H       1  UNL1        0.1466
     23 C         138.1433  141.4299  161.1814 C.ar    1  UNL1        0.1418
     24 C         137.6180  140.1059  160.7113 C.ar    1  UNL1        0.0576
     25 C         137.7089  138.9034  161.6034 C.ar    1  UNL1        0.1019
     26 N         138.3249  139.0250  162.9657 N.ar    1  UNL1       -0.2436
     27 C         138.8502  140.3490  163.4358 C.ar    1  UNL1        0.0843
     28 C         138.7594  141.5515  162.5436 C.ar    1  UNL1        0.0560
     29 C         138.4984  142.5412  158.8600 C.3     1  UNL1        0.2525
     30 O         138.0525  142.6324  160.2894 O.3     1  UNL1       -0.4713
@<TRIPOS>BOND
     1    29    30    1
     2    30    23    1
     3    23    24   ar
     4    24    25   ar
     5    25    26   ar
     6    26    27   ar
     7    27     1    1
     8     1     2   ar
     9     2     3   ar
    10     3     4   ar
    11     4     5   ar
    12     5     6   ar
    13     5     7    1
    14     7     8    1
    15     8     9    1
    16     9    10    1
    17    10    11    1
    18    10    12    2
    19     7    13    1
    20    13    14    1
    21    14    15    1
    22    15    16    1
    23    13    17    1
    24    17    18    1
    25    17    19    1
    26    17    20    1
    27    27    28   ar
    28    28    23   ar
    29     6     1   ar
    30    12     7    1
    31    16    13    1
    32    20     4    1
    33    11    21    1
    34    11    22    1
@<TRIPOS>MOLECULE
*****
 30 34 0 0 0
SMALL
GASTEIGER

@<TRIPOS>ATOM
      1 C         139.5373  140.3709  166.2724 C.ar    1  UNL1        0.0177
      2 C         139.6227  138.9698  165.7436 C.ar    1  UNL1        0.0046
      3 C         139.3213  138.6931  164.3005 C.ar    1  UNL1        0.0367
      4 C         138.9345  139.8176  163.3862 C.ar    1  UNL1        0.1360
      5 C         138.8491  141.2187  163.9149 C.ar    1  UNL1        0.0357
      6 C         139.1505  141.4954  165.3581 C.ar    1  UNL1        0.0021
      7 C         138.4623  142.3431  163.0006 C.3     1  UNL1        0.1580
      8 C         138.0907  143.5627  162.2102 C.3     1  UNL1        0.2351
      9 O         138.1323  144.7440  163.1338 O.2     1  UNL1       -0.4478
     10 C         138.5296  144.2546  164.4948 C.2     1  UNL1        0.2770
     11 N         138.6941  145.1003  165.7226 N.pl3   1  UNL1       -0.3133
     12 N         138.7336  142.7707  164.4126 N.2     1  UNL1       -0.2202
     13 C         138.1609  142.0665  161.5575 C.3     1  UNL1        0.1141
     14 C         138.2688  141.7528  161.8126 C.3     1  UNL1        0.1501
     15 O         138.1554  142.0825  161.5444 O.3     1  UNL1       -0.3532
     16 C         138.2688  141.7528  161.8126 C.3     1  UNL1        0.1501
     17 C         138.2463  140.6654  161.0287 C.3     1  UNL1        0.1398
     18 C         138.1906  139.5162  160.0663 C.3     1  UNL1        0.0438
     19 C         137.8401  141.3907  159.7801 C.3     1  UNL1        0.0438
     20 O         138.6330  139.5409  161.9431 O.3     1  UNL1       -0.4826
     21 H         138.5368  146.0711  165.6763 H       1  UNL1        0.1466
     22 H         138.9593  144.6847  166.5747 H       1  UNL1        0.1466
     23 C         141.2345  141.8821  169.5260 C.ar    1  UNL1        0.1418
     24 C         140.4416  141.2009  170.6018 C.ar    1  UNL1        0.0576
     25 C         139.3474  140.2430  170.2345 C.ar    1  UNL1        0.1019
     26 N         139.0459  139.9663  168.7913 N.ar    1  UNL1       -0.2436
     27 C         139.8387  140.6476  167.7155 C.ar    1  UNL1        0.0843
     28 C         140.9331  141.6055  168.0829 C.ar    1  UNL1        0.0560
     29 C         143.7625  142.4056  169.8177 C.3     1  UNL1        0.2525
     30 O         142.3287  142.8400  169.8933 O.3     1  UNL1       -0.4713
@<TRIPOS>BOND
     1    29    30    1
     2    30    23    1
     3    23    24   ar
     4    24    25   ar
     5    25    26   ar
     6    26    27   ar
     7    27     1    1
     8     1     2   ar
     9     2     3   ar
    10     3     4   ar
    11     4     5   ar
    12     5     6   ar
    13     5     7    1
    14     7     8    1
    15     8     9    1
    16     9    10    1
    17    10    11    1
    18    10    12    2
    19     7    13    1
    20    13    14    1
    21    14    15    1
    22    15    16    1
    23    13    17    1
    24    17    18    1
    25    17    19    1
    26    17    20    1
    27    27    28   ar
    28    28    23   ar
    29     6     1   ar
    30    12     7    1
    31    16    13    1
    32    20     4    1
    33    11    21    1
    34    11    22    1
@<TRIPOS>MOLECULE
*****
 30 34 0 0 0
SMALL
GASTEIGER

@<TRIPOS>ATOM
      1 C         140.7403  142.7460  164.6806 C.ar    1  UNL1        0.0177
      2 C         139.9790  143.4336  165.7750 C.ar    1  UNL1        0.0046
      3 C         140.0684  142.9265  167.1838 C.ar    1  UNL1        0.0367
      4 C         140.9191  141.7318  167.4983 C.ar    1  UNL1        0.1360
      5 C         141.6804  141.0442  166.4039 C.ar    1  UNL1        0.0357
      6 C         141.5910  141.5513  164.9950 C.ar    1  UNL1        0.0021
      7 C         142.5312  139.8495  166.7184 C.3     1  UNL1        0.1580
      8 C         143.4178  138.6504  166.8801 C.3     1  UNL1        0.2351
      9 O         143.9741  138.3000  165.5318 O.2     1  UNL1       -0.4478
     10 C         143.4314  139.2826  164.5368 C.2     1  UNL1        0.2770
     11 N         143.7282  139.3038  163.0667 N.pl3   1  UNL1       -0.3133
     12 N         142.5395  140.2402  165.2701 N.2     1  UNL1       -0.2202
     13 C         142.6206  139.3423  168.1272 C.3     1  UNL1        0.1141
     14 C         142.3833  139.6757  168.0395 C.3     1  UNL1        0.1501
     15 O         142.6327  139.3253  168.1317 O.3     1  UNL1       -0.3532
     16 C         142.3833  139.6757  168.0395 C.3     1  UNL1        0.1501
     17 C         141.8593  140.0299  169.2215 C.3     1  UNL1        0.1398
     18 C         141.3296  140.3400  170.5902 C.3     1  UNL1        0.0438
     19 C         142.5261  138.9429  170.0114 C.3     1  UNL1        0.0438
     20 O         141.0086  141.2247  168.9071 O.3     1  UNL1       -0.4826
     21 H         144.3296  138.6292  162.6762 H       1  UNL1        0.1466
     22 H         143.3216  139.9923  162.4924 H       1  UNL1        0.1466
     23 C         139.3929  143.3811  161.0021 C.ar    1  UNL1        0.1418
     24 C         140.4719  144.2674  160.4541 C.ar    1  UNL1        0.0576
     25 C         141.6403  144.6466  161.3148 C.ar    1  UNL1        0.1019
     26 N         141.7298  144.1394  162.7237 N.ar    1  UNL1       -0.2436
     27 C         140.6508  143.2531  163.2718 C.ar    1  UNL1        0.0843
     28 C         139.4824  142.8740  162.4109 C.ar    1  UNL1        0.0560
     29 C         138.4440  142.6042  158.7117 C.3     1  UNL1        0.2525
     30 O         138.2245  143.0019  160.1413 O.3     1  UNL1       -0.4713
@<TRIPOS>BOND
     1    29    30    1
     2    30    23    1
     3    23    24   ar
     4    24    25   ar
     5    25    26   ar
     6    26    27   ar
     7    27     1    1
     8     1     2   ar
     9     2     3   ar
    10     3     4   ar
    11     4     5   ar
    12     5     6   ar
    13     5     7    1
    14     7     8    1
    15     8     9    1
    16     9    10    1
    17    10    11    1
    18    10    12    2
    19     7    13    1
    20    13    14    1
    21    14    15    1
    22    15    16    1
    23    13    17    1
    24    17    18    1
    25    17    19    1
    26    17    20    1
    27    27    28   ar
    28    28    23   ar
    29     6     1   ar
    30    12     7    1
    31    16    13    1
    32    20     4    1
    33    11    21    1
    34    11    22    1
@<TRIPOS>MOLECULE
*****
 30 34 0 0 0
SMALL
GASTEIGER

@<TRIPOS>ATOM
      1 C         142.0354  140.8018  166.6959 C.ar    1  UNL1        0.0177
      2 C         143.3545  141.3316  166.2169 C.ar    1  UNL1        0.0046
      3 C         143.8934  140.9074  164.8829 C.ar    1  UNL1        0.0367
      4 C         143.1133  139.9533  164.0278 C.ar    1  UNL1        0.1360
      5 C         141.7942  139.4235  164.5067 C.ar    1  UNL1        0.0357
      6 C         141.2553  139.8477  165.8408 C.ar    1  UNL1        0.0021
      7 C         141.0141  138.4695  163.6517 C.3     1  UNL1        0.1580
      8 C         140.1261  137.5142  162.9107 C.3     1  UNL1        0.2351
      9 O         138.9146  137.2562  163.7568 O.2     1  UNL1       -0.4478
     10 C         139.0538  138.0519  165.0206 C.2     1  UNL1        0.2770
     11 N         138.0686  138.0910  166.1509 N.pl3   1  UNL1       -0.3133
     12 N         140.3514  138.8018  164.9557 N.2     1  UNL1       -0.2202
     13 C         141.5530  138.0452  162.3177 C.3     1  UNL1        0.1141
     14 C         141.7707  138.3114  162.5563 C.3     1  UNL1        0.1501
     15 O         141.5419  138.0316  162.3055 O.3     1  UNL1       -0.3532
     16 C         141.7707  138.3114  162.5563 C.3     1  UNL1        0.1501
     17 C         142.8720  138.5750  161.8388 C.3     1  UNL1        0.1398
     18 C         144.0639  138.8007  160.9564 C.3     1  UNL1        0.0438
     19 C         142.5058  137.6993  160.6772 C.3     1  UNL1        0.0438
     20 O         143.6522  139.5291  162.6939 O.3     1  UNL1       -0.4826
     21 H         137.2405  137.5609  166.1007 H       1  UNL1        0.1466
     22 H         138.2500  138.6468  166.9430 H       1  UNL1        0.1466
     23 C         140.0216  140.7505  170.1152 C.ar    1  UNL1        0.1418
     24 C         140.4187  142.0745  170.6979 C.ar    1  UNL1        0.0576
     25 C         141.3546  142.9742  169.9466 C.ar    1  UNL1        0.1019
     26 N         141.8936  142.5500  168.6126 N.ar    1  UNL1       -0.2436
     27 C         141.4965  141.2260  168.0299 C.ar    1  UNL1        0.0843
     28 C         140.5605  140.3263  168.7812 C.ar    1  UNL1        0.0560
     29 C         137.6963  139.6161  170.3520 C.3     1  UNL1        0.2525
     30 O         139.0857  139.8508  170.8665 O.3     1  UNL1       -0.4713
@<TRIPOS>BOND
     1    29    30    1
     2    30    23    1
     3    23    24   ar
     4    24    25   ar
     5    25    26   ar
     6    26    27   ar
     7    27     1    1
     8     1     2   ar
     9     2     3   ar
    10     3     4   ar
    11     4     5   ar
    12     5     6   ar
    13     5     7    1
    14     7     8    1
    15     8     9    1
    16     9    10    1
    17    10    11    1
    18    10    12    2
    19     7    13    1
    20    13    14    1
    21    14    15    1
    22    15    16    1
    23    13    17    1
    24    17    18    1
    25    17    19    1
    26    17    20    1
    27    27    28   ar
    28    28    23   ar
    29     6     1   ar
    30    12     7    1
    31    16    13    1
    32    20     4    1
    33    11    21    1
    34    11    22    1
@<TRIPOS>MOLECULE
*****
 30 34 0 0 0
SMALL
GASTEIGER

@<TRIPOS>ATOM
      1 C         139.5205  142.5165  162.3604 C.ar    1  UNL1        0.0177
      2 C         139.9287  143.7457  163.1172 C.ar    1  UNL1        0.0046
      3 C         140.1369  143.6782  164.6011 C.ar    1  UNL1        0.0367
      4 C         139.9369  142.3816  165.3283 C.ar    1  UNL1        0.1360
      5 C         139.5287  141.1525  164.5717 C.ar    1  UNL1        0.0357
      6 C         139.3205  141.2199  163.0876 C.ar    1  UNL1        0.0021
      7 C         139.3288  139.8559  165.2989 C.3     1  UNL1        0.1580
      8 C         139.0927  138.4963  165.8869 C.3     1  UNL1        0.2351
      9 O         138.7030  137.5706  164.7727 O.2     1  UNL1       -0.4478
     10 C         138.6983  138.3581  163.4961 C.2     1  UNL1        0.2770
     11 N         138.3653  137.8266  162.1336 N.pl3   1  UNL1       -0.3133
     12 N         139.0850  139.7705  163.8212 N.2     1  UNL1       -0.2202
     13 C         139.5369  139.7885  166.7828 C.3     1  UNL1        0.1141
     14 C         139.5927  140.1502  166.5799 C.3     1  UNL1        0.1501
     15 O         139.5341  139.7700  166.7932 O.3     1  UNL1       -0.3532
     16 C         139.5927  140.1502  166.5799 C.3     1  UNL1        0.1501
     17 C         139.9451  141.0176  167.5395 C.3     1  UNL1        0.1398
     18 C         140.3302  141.9032  168.6872 C.3     1  UNL1        0.0438
     19 C         139.8788  140.0286  168.6654 C.3     1  UNL1        0.0438
     20 O         140.1450  142.3142  166.8122 O.3     1  UNL1       -0.4826
     21 H         138.1219  136.8794  162.0207 H       1  UNL1        0.1466
     22 H         138.3902  138.4250  161.3522 H       1  UNL1        0.1466
     23 C         138.2773  141.6070  158.7029 C.ar    1  UNL1        0.1418
     24 C         138.8960  142.7188  157.9086 C.ar    1  UNL1        0.0576
     25 C         139.7229  143.7632  158.5981 C.ar    1  UNL1        0.1019
     26 N         139.9311  143.6958  160.0821 N.ar    1  UNL1       -0.2436
     27 C         139.3124  142.5839  160.8765 C.ar    1  UNL1        0.0843
     28 C         138.4855  141.5395  160.1869 C.ar    1  UNL1        0.0560
     29 C         136.6892  140.9100  156.7684 C.3     1  UNL1        0.2525
     30 O         137.4505  140.5626  158.0134 O.3     1  UNL1       -0.4713
@<TRIPOS>BOND
     1    29    30    1
     2    30    23    1
     3    23    24   ar
     4    24    25   ar
     5    25    26   ar
     6    26    27   ar
     7    27     1    1
     8     1     2   ar
     9     2     3   ar
    10     3     4   ar
    11     4     5   ar
    12     5     6   ar
    13     5     7    1
    14     7     8    1
    15     8     9    1
    16     9    10    1
    17    10    11    1
    18    10    12    2
    19     7    13    1
    20    13    14    1
    21    14    15    1
    22    15    16    1
    23    13    17    1
    24    17    18    1
    25    17    19    1
    26    17    20    1
    27    27    28   ar
    28    28    23   ar
    29     6     1   ar
    30    12     7    1
    31    16    13    1
    32    20     4    1
    33    11    21    1
    34    11    22    1
@<TRIPOS>MOLECULE
*****
 30 34 0 0 0
SMALL
GASTEIGER

@<TRIPOS>ATOM
      1 C         139.2642  142.6357  162.3272 C.ar    1  UNL1        0.0177
      2 C         138.4526  143.1896  163.4607 C.ar    1  UNL1        0.0046
      3 C         138.0234  142.2931  164.5840 C.ar    1  UNL1        0.0367
      4 C         138.4055  140.8426  164.5739 C.ar    1  UNL1        0.1360
      5 C         139.2170  140.2887  163.4405 C.ar    1  UNL1        0.0357
      6 C         139.6464  141.1853  162.3171 C.ar    1  UNL1        0.0021
      7 C         139.5992  138.8383  163.4305 C.3     1  UNL1        0.1580
      8 C         140.0542  137.4164  163.2842 C.3     1  UNL1        0.2351
      9 O         140.8345  137.3083  162.0076 O.2     1  UNL1       -0.4478
     10 C         140.8617  138.6633  161.3649 C.2     1  UNL1        0.2770
     11 N         141.5342  139.0117  160.0702 N.pl3   1  UNL1       -0.3133
     12 N         140.0983  139.6089  162.2442 N.2     1  UNL1       -0.2202
     13 C         139.1699  137.9417  164.5538 C.3     1  UNL1        0.1141
     14 C         139.0633  138.3464  164.5566 C.3     1  UNL1        0.1501
     15 O         139.1754  137.9210  164.5536 O.3     1  UNL1       -0.3532
     16 C         139.0633  138.3464  164.5566 C.3     1  UNL1        0.1501
     17 C         138.3584  138.4956  165.6871 C.3     1  UNL1        0.1398
     18 C         137.5866  138.5526  166.9720 C.3     1  UNL1        0.0438
     19 C         138.4726  137.0649  166.1234 C.3     1  UNL1        0.0438
     20 O         137.9763  139.9461  165.6972 O.3     1  UNL1       -0.4826
     21 H         142.0135  138.3178  159.5622 H       1  UNL1        0.1466
     22 H         141.4962  139.9342  159.7284 H       1  UNL1        0.1466
     23 C         140.5715  143.8363  158.7776 C.ar    1  UNL1        0.1418
     24 C         140.5521  145.3254  158.9572 C.ar    1  UNL1        0.0576
     25 C         140.1034  145.9179  160.2600 C.ar    1  UNL1        0.1019
     26 N         139.6741  145.0214  161.3834 N.ar    1  UNL1       -0.2436
     27 C         139.6935  143.5323  161.2039 C.ar    1  UNL1        0.0843
     28 C         140.1422  142.9397  159.9009 C.ar    1  UNL1        0.0560
     29 C         140.1121  142.3196  156.7188 C.3     1  UNL1        0.2525
     30 O         141.0203  143.2437  157.4748 O.3     1  UNL1       -0.4713
@<TRIPOS>BOND
     1    29    30    1
     2    30    23    1
     3    23    24   ar
     4    24    25   ar
     5    25    26   ar
     6    26    27   ar
     7    27     1    1
     8     1     2   ar
     9     2     3   ar
    10     3     4   ar
    11     4     5   ar
    12     5     6   ar
    13     5     7    1
    14     7     8    1
    15     8     9    1
    16     9    10    1
    17    10    11    1
    18    10    12    2
    19     7    13    1
    20    13    14    1
    21    14    15    1
    22    15    16    1
    23    13    17    1
    24    17    18    1
    25    17    19    1
    26    17    20    1
    27    27    28   ar
    28    28    23   ar
    29     6     1   ar
    30    12     7    1
    31    16    13    1
    32    20     4    1
    33    11    21    1
    34    11    22    1
@<TRIPOS>MOLECULE
*****
 30 34 0 0 0
SMALL
GASTEIGER

@<TRIPOS>ATOM
      1 C         142.0881  142.7780  164.3084 C.ar    1  UNL1        0.0177
      2 C         143.3733  143.1397  164.9923 C.ar    1  UNL1        0.0046
      3 C         143.6572  142.6292  166.3738 C.ar    1  UNL1        0.0367
      4 C         142.6560  141.7570  167.0716 C.ar    1  UNL1        0.1360
      5 C         141.3709  141.3953  166.3878 C.ar    1  UNL1        0.0357
      6 C         141.0869  141.9058  165.0062 C.ar    1  UNL1        0.0021
      7 C         140.3697  140.5231  167.0856 C.3     1  UNL1        0.1580
      8 C         139.2793  139.6647  167.6549 C.3     1  UNL1        0.2351
      9 O         138.1849  139.5674  166.6336 O.2     1  UNL1       -0.4478
     10 C         138.5990  140.3657  165.4331 C.2     1  UNL1        0.2770
     11 N         137.8027  140.5423  164.1743 N.pl3   1  UNL1       -0.3133
     12 N         139.9493  140.9564  165.7124 N.2     1  UNL1       -0.2202
     13 C         140.6536  140.0126  168.4672 C.3     1  UNL1        0.1141
     14 C         140.9330  140.2560  168.2725 C.3     1  UNL1        0.1501
     15 O         140.6393  140.0002  168.4771 O.3     1  UNL1       -0.3532
     16 C         140.9330  140.2560  168.2725 C.3     1  UNL1        0.1501
     17 C         141.9388  140.3743  169.1509 C.3     1  UNL1        0.1398
     18 C         143.0047  140.4411  170.2041 C.3     1  UNL1        0.0438
     19 C         141.3078  139.5253  170.2145 C.3     1  UNL1        0.0438
     20 O         142.9400  141.2465  168.4531 O.3     1  UNL1       -0.4826
     21 H         136.9216  140.1123  164.0848 H       1  UNL1        0.1466
     22 H         138.1612  141.0882  163.4376 H       1  UNL1        0.1466
     23 C         142.1297  143.1199  160.3548 C.ar    1  UNL1        0.1418
     24 C         141.2363  144.3096  160.1637 C.ar    1  UNL1        0.0576
     25 C         140.6268  144.9887  161.3542 C.ar    1  UNL1        0.1019
     26 N         140.9107  144.4782  162.7358 N.ar    1  UNL1       -0.2436
     27 C         141.8041  143.2885  162.9269 C.ar    1  UNL1        0.0843
     28 C         142.4136  142.6094  161.7363 C.ar    1  UNL1        0.0560
     29 C         144.0273  142.9497  158.5884 C.3     1  UNL1        0.2525
     30 O         142.7391  142.4407  159.1643 O.3     1  UNL1       -0.4713
@<TRIPOS>BOND
     1    29    30    1
     2    30    23    1
     3    23    24   ar
     4    24    25   ar
     5    25    26   ar
     6    26    27   ar
     7    27     1    1
     8     1     2   ar
     9     2     3   ar
    10     3     4   ar
    11     4     5   ar
    12     5     6   ar
    13     5     7    1
    14     7     8    1
    15     8     9    1
    16     9    10    1
    17    10    11    1
    18    10    12    2
    19     7    13    1
    20    13    14    1
    21    14    15    1
    22    15    16    1
    23    13    17    1
    24    17    18    1
    25    17    19    1
    26    17    20    1
    27    27    28   ar
    28    28    23   ar
    29     6     1   ar
    30    12     7    1
    31    16    13    1
    32    20     4    1
    33    11    21    1
    34    11    22    1
