@<TRIPOS>MOLECULE
*****
 28 30 0 0 0
SMALL
GASTEIGER

@<TRIPOS>ATOM
      1 C         139.2004  139.1432  165.5443 C.ar    1  UNL1        0.0857
      2 C         139.1058  137.7390  165.0256 C.ar    1  UNL1        0.0089
      3 C         138.6355  137.4874  163.6236 C.ar    1  UNL1        0.0194
      4 C         138.2600  138.6401  162.7403 C.ar    1  UNL1        0.0857
      5 C         137.7663  138.7009  161.3252 C.ar    1  UNL1        0.1181
      6 N         137.5559  140.1428  160.9693 N.ar    1  UNL1       -0.2220
      7 C         137.9194  140.9731  162.1645 C.ar    1  UNL1        0.1837
      8 N         138.3546  140.0444  163.2590 N.ar    1  UNL1       -0.2759
      9 C         138.8248  140.2959  164.6610 C.ar    1  UNL1        0.1224
     10 O         141.1293  139.6109  167.2208 O.2     1  UNL1       -0.2680
     11 C         139.6706  139.3948  166.9463 C.2     1  UNL1        0.2706
     12 N         138.6820  139.4304  168.0739 N.am    1  UNL1       -0.1896
     13 H         137.7245  139.2885  167.8937 H       1  UNL1        0.1828
     14 O         139.1521  139.6820  169.4759 O.3     1  UNL1       -0.2635
     15 C         139.4565  141.0804  169.9253 C.3     1  UNL1        0.2026
     16 C         140.6377  141.3428  170.8117 C.3     1  UNL1        0.1719
     17 O         140.7574  140.6374  172.1301 O.3     1  UNL1       -0.3794
     18 H         140.0443  140.9297  172.7191 H       1  UNL1        0.2105
     19 N         138.9195  141.7002  165.1797 N.pl3   1  UNL1       -0.2971
     20 H         138.2151  142.0560  165.7684 H       1  UNL1        0.1536
     21 C         140.0873  142.5624  164.8015 C.ar    1  UNL1        0.0772
     22 C         141.4769  141.9983  164.8323 C.ar    1  UNL1        0.0174
     23 C         142.6447  142.8605  164.4540 C.ar    1  UNL1        0.0072
     24 C         142.4228  144.2865  164.0451 C.ar    1  UNL1        0.0324
     25 I         143.5906  145.1487  163.6669 I       1  UNL1       -0.0424
     26 C         141.0332  144.8504  164.0143 C.ar    1  UNL1        0.0367
     27 C         139.8655  143.9883  164.3926 C.ar    1  UNL1        0.1539
     28 F         138.4758  144.5523  164.3618 F       1  UNL1       -0.2028
@<TRIPOS>BOND
     1    10    11    2
     2    11    12   am
     3    12    14    1
     4    14    15    1
     5    15    16    1
     6    16    17    1
     7    11     1    1
     8     1     2   ar
     9     2     3   ar
    10     3     4   ar
    11     4     5   ar
    12     5     6   ar
    13     6     7   ar
    14     7     8   ar
    15     8     9   ar
    16     9    19    1
    17    19    21    1
    18    21    22   ar
    19    22    23   ar
    20    23    24   ar
    21    24    25    1
    22    24    26   ar
    23    26    27   ar
    24    27    28    1
    25     9     1   ar
    26    27    21   ar
    27     8     4   ar
    28    12    13    1
    29    17    18    1
    30    19    20    1
@<TRIPOS>MOLECULE
*****
 28 30 0 0 0
SMALL
GASTEIGER

@<TRIPOS>ATOM
      1 C         139.8886  140.0976  166.9441 C.ar    1  UNL1        0.0857
      2 C         138.9564  139.6425  168.0274 C.ar    1  UNL1        0.0089
      3 C         139.0149  140.2800  169.3841 C.ar    1  UNL1        0.0194
      4 C         140.0056  141.3726  169.6571 C.ar    1  UNL1        0.0857
      5 C         140.2936  142.1819  170.8868 C.ar    1  UNL1        0.1181
      6 N         141.4039  143.1373  170.5633 N.ar    1  UNL1       -0.2220
      7 C         141.8020  142.9184  169.1338 C.ar    1  UNL1        0.1837
      8 N         140.9378  141.8277  168.5737 N.ar    1  UNL1       -0.2759
      9 C         140.8793  141.1902  167.2172 C.ar    1  UNL1        0.1224
     10 O         141.0976  139.0682  164.8878 O.2     1  UNL1       -0.2680
     11 C         139.8302  139.4601  165.5875 C.2     1  UNL1        0.2706
     12 N         138.5041  139.2146  164.9308 N.am    1  UNL1       -0.1896
     13 H         137.6722  139.4719  165.3901 H       1  UNL1        0.1828
     14 O         138.4456  138.5772  163.5742 O.3     1  UNL1       -0.2635
     15 C         138.0417  139.3904  162.3802 C.3     1  UNL1        0.2026
     16 C         137.7966  140.8632  162.5241 C.3     1  UNL1        0.1719
     17 O         136.6126  141.3538  163.3037 O.3     1  UNL1       -0.3794
     18 H         135.7961  141.0971  162.8472 H       1  UNL1        0.2105
     19 N         141.8116  141.6454  166.1338 N.pl3   1  UNL1       -0.2971
     20 H         142.7268  141.2854  166.0885 H       1  UNL1        0.1536
     21 C         141.3493  142.6490  165.1192 C.ar    1  UNL1        0.0772
     22 C         140.1776  143.5354  165.4212 C.ar    1  UNL1        0.0174
     23 C         139.7153  144.5390  164.4067 C.ar    1  UNL1        0.0072
     24 C         140.4248  144.6561  163.0903 C.ar    1  UNL1        0.0324
     25 I         139.9626  145.6596  162.0757 I       1  UNL1       -0.0424
     26 C         141.5966  143.7695  162.7884 C.ar    1  UNL1        0.0367
     27 C         142.0588  142.7660  163.8029 C.ar    1  UNL1        0.1539
     28 F         143.2305  141.8795  163.5009 F       1  UNL1       -0.2028
@<TRIPOS>BOND
     1    10    11    2
     2    11    12   am
     3    12    14    1
     4    14    15    1
     5    15    16    1
     6    16    17    1
     7    11     1    1
     8     1     2   ar
     9     2     3   ar
    10     3     4   ar
    11     4     5   ar
    12     5     6   ar
    13     6     7   ar
    14     7     8   ar
    15     8     9   ar
    16     9    19    1
    17    19    21    1
    18    21    22   ar
    19    22    23   ar
    20    23    24   ar
    21    24    25    1
    22    24    26   ar
    23    26    27   ar
    24    27    28    1
    25     9     1   ar
    26    27    21   ar
    27     8     4   ar
    28    12    13    1
    29    17    18    1
    30    19    20    1
@<TRIPOS>MOLECULE
*****
 28 30 0 0 0
SMALL
GASTEIGER

@<TRIPOS>ATOM
      1 C         139.6238  139.6786  167.4010 C.ar    1  UNL1        0.0857
      2 C         138.2625  139.0756  167.2197 C.ar    1  UNL1        0.0089
      3 C         137.9470  138.2956  165.9778 C.ar    1  UNL1        0.0194
      4 C         138.9930  138.1188  164.9173 C.ar    1  UNL1        0.0857
      5 C         138.9734  137.4071  163.5970 C.ar    1  UNL1        0.1181
      6 N         140.3227  137.5703  162.9624 N.ar    1  UNL1       -0.2220
      7 C         141.1762  138.3829  163.8905 C.ar    1  UNL1        0.1837
      8 N         140.3544  138.7219  165.0986 N.ar    1  UNL1       -0.2759
      9 C         140.6698  139.5018  166.3405 C.ar    1  UNL1        0.1224
     10 O         140.1928  141.9345  168.5575 O.2     1  UNL1       -0.2680
     11 C         139.9393  140.4586  168.6429 C.2     1  UNL1        0.2706
     12 N         140.0013  139.7625  169.9701 N.am    1  UNL1       -0.1896
     13 H         139.8349  138.7938  170.0262 H       1  UNL1        0.1828
     14 O         140.3168  140.5424  171.2120 O.3     1  UNL1       -0.2635
     15 C         141.7156  141.0239  171.4602 C.3     1  UNL1        0.2026
     16 C         142.8591  140.4364  170.6873 C.3     1  UNL1        0.1719
     17 O         142.9895  138.9478  170.5564 O.3     1  UNL1       -0.3794
     18 H         143.1668  138.5608  171.4280 H       1  UNL1        0.2105
     19 N         142.0312  140.1049  166.5219 N.pl3   1  UNL1       -0.2971
     20 H         142.6305  139.7649  167.2251 H       1  UNL1        0.1536
     21 C         142.4795  141.2261  165.6318 C.ar    1  UNL1        0.0772
     22 C         141.6491  142.4699  165.5166 C.ar    1  UNL1        0.0174
     23 C         142.0974  143.5911  164.6265 C.ar    1  UNL1        0.0072
     24 C         143.3760  143.4683  163.8518 C.ar    1  UNL1        0.0324
     25 I         143.8242  144.5894  162.9617 I       1  UNL1       -0.0424
     26 C         144.2063  142.2244  163.9671 C.ar    1  UNL1        0.0367
     27 C         143.7580  141.1033  164.8571 C.ar    1  UNL1        0.1539
     28 F         144.5883  139.8594  164.9724 F       1  UNL1       -0.2028
@<TRIPOS>BOND
     1    10    11    2
     2    11    12   am
     3    12    14    1
     4    14    15    1
     5    15    16    1
     6    16    17    1
     7    11     1    1
     8     1     2   ar
     9     2     3   ar
    10     3     4   ar
    11     4     5   ar
    12     5     6   ar
    13     6     7   ar
    14     7     8   ar
    15     8     9   ar
    16     9    19    1
    17    19    21    1
    18    21    22   ar
    19    22    23   ar
    20    23    24   ar
    21    24    25    1
    22    24    26   ar
    23    26    27   ar
    24    27    28    1
    25     9     1   ar
    26    27    21   ar
    27     8     4   ar
    28    12    13    1
    29    17    18    1
    30    19    20    1
@<TRIPOS>MOLECULE
*****
 28 30 0 0 0
SMALL
GASTEIGER

@<TRIPOS>ATOM
      1 C         140.1043  140.3757  166.9807 C.ar    1  UNL1        0.0857
      2 C         139.1798  139.8236  168.0248 C.ar    1  UNL1        0.0089
      3 C         139.2883  140.2915  169.4459 C.ar    1  UNL1        0.0194
      4 C         140.3215  141.3116  169.8226 C.ar    1  UNL1        0.0857
      5 C         140.6627  141.9580  171.1325 C.ar    1  UNL1        0.1181
      6 N         141.7982  142.9097  170.8978 N.ar    1  UNL1       -0.2220
      7 C         142.1587  142.8514  169.4429 C.ar    1  UNL1        0.1837
      8 N         141.2461  141.8637  168.7784 N.ar    1  UNL1       -0.2759
      9 C         141.1375  141.3958  167.3575 C.ar    1  UNL1        0.1224
     10 O         141.2182  139.4354  164.8301 O.2     1  UNL1       -0.2680
     11 C         139.9958  139.9077  165.5596 C.2     1  UNL1        0.2706
     12 N         138.6646  139.9122  164.8682 N.am    1  UNL1       -0.1896
     13 H         137.8622  140.2222  165.3471 H       1  UNL1        0.1828
     14 O         138.5560  139.4443  163.4472 O.3     1  UNL1       -0.2635
     15 C         138.7948  138.0017  163.1122 C.3     1  UNL1        0.2026
     16 C         139.9815  137.6111  162.2822 C.3     1  UNL1        0.1719
     17 O         141.1406  136.9020  162.9179 O.3     1  UNL1       -0.3794
     18 H         141.5738  137.4946  163.5519 H       1  UNL1        0.2105
     19 N         142.0621  141.9479  166.3133 N.pl3   1  UNL1       -0.2971
     20 H         143.0135  141.6951  166.3150 H       1  UNL1        0.1536
     21 C         141.5369  142.8852  165.2664 C.ar    1  UNL1        0.0772
     22 C         140.2554  143.6288  165.5006 C.ar    1  UNL1        0.0174
     23 C         139.7302  144.5661  164.4538 C.ar    1  UNL1        0.0072
     24 C         140.4865  144.7597  163.1729 C.ar    1  UNL1        0.0324
     25 I         139.9614  145.6970  162.1262 I       1  UNL1       -0.0424
     26 C         141.7680  144.0160  162.9389 C.ar    1  UNL1        0.0367
     27 C         142.2931  143.0788  163.9857 C.ar    1  UNL1        0.1539
     28 F         143.5746  142.3351  163.7515 F       1  UNL1       -0.2028
@<TRIPOS>BOND
     1    10    11    2
     2    11    12   am
     3    12    14    1
     4    14    15    1
     5    15    16    1
     6    16    17    1
     7    11     1    1
     8     1     2   ar
     9     2     3   ar
    10     3     4   ar
    11     4     5   ar
    12     5     6   ar
    13     6     7   ar
    14     7     8   ar
    15     8     9   ar
    16     9    19    1
    17    19    21    1
    18    21    22   ar
    19    22    23   ar
    20    23    24   ar
    21    24    25    1
    22    24    26   ar
    23    26    27   ar
    24    27    28    1
    25     9     1   ar
    26    27    21   ar
    27     8     4   ar
    28    12    13    1
    29    17    18    1
    30    19    20    1
@<TRIPOS>MOLECULE
*****
 28 30 0 0 0
SMALL
GASTEIGER

@<TRIPOS>ATOM
      1 C         139.8091  139.4418  167.2927 C.ar    1  UNL1        0.0857
      2 C         138.4201  138.8910  167.1618 C.ar    1  UNL1        0.0089
      3 C         138.0037  138.1989  165.8978 C.ar    1  UNL1        0.0194
      4 C         138.9763  138.0578  164.7647 C.ar    1  UNL1        0.0857
      5 C         138.8525  137.4300  163.4080 C.ar    1  UNL1        0.1181
      6 N         140.1651  137.5930  162.7004 N.ar    1  UNL1       -0.2220
      7 C         141.1001  138.3214  163.6197 C.ar    1  UNL1        0.1837
      8 N         140.3654  138.6087  164.8955 N.ar    1  UNL1       -0.2759
      9 C         140.7817  139.3007  166.1596 C.ar    1  UNL1        0.1224
     10 O         141.6737  140.1798  168.9445 O.2     1  UNL1       -0.2680
     11 C         140.2255  140.1339  168.5567 C.2     1  UNL1        0.2706
     12 N         139.1936  140.7801  169.4328 N.am    1  UNL1       -0.1896
     13 H         138.2430  140.7499  169.1783 H       1  UNL1        0.1828
     14 O         139.6099  141.4721  170.6968 O.3     1  UNL1       -0.2635
     15 C         139.7743  142.9630  170.7165 C.3     1  UNL1        0.2026
     16 C         140.6937  143.6291  169.7361 C.3     1  UNL1        0.1719
     17 O         142.0472  143.0439  169.4605 O.3     1  UNL1       -0.3794
     18 H         142.5932  143.1013  170.2601 H       1  UNL1        0.2105
     19 N         142.1708  139.8516  166.2904 N.pl3   1  UNL1       -0.2971
     20 H         142.8318  139.3907  166.8560 H       1  UNL1        0.1536
     21 C         142.5526  141.1048  165.5597 C.ar    1  UNL1        0.0772
     22 C         141.6155  142.2758  165.5390 C.ar    1  UNL1        0.0174
     23 C         141.9973  143.5290  164.8082 C.ar    1  UNL1        0.0072
     24 C         143.3161  143.6110  164.0982 C.ar    1  UNL1        0.0324
     25 I         143.6979  144.8640  163.3675 I       1  UNL1       -0.0424
     26 C         144.2531  142.4398  164.1190 C.ar    1  UNL1        0.0367
     27 C         143.8713  141.1867  164.8497 C.ar    1  UNL1        0.1539
     28 F         144.8084  140.0156  164.8704 F       1  UNL1       -0.2028
@<TRIPOS>BOND
     1    10    11    2
     2    11    12   am
     3    12    14    1
     4    14    15    1
     5    15    16    1
     6    16    17    1
     7    11     1    1
     8     1     2   ar
     9     2     3   ar
    10     3     4   ar
    11     4     5   ar
    12     5     6   ar
    13     6     7   ar
    14     7     8   ar
    15     8     9   ar
    16     9    19    1
    17    19    21    1
    18    21    22   ar
    19    22    23   ar
    20    23    24   ar
    21    24    25    1
    22    24    26   ar
    23    26    27   ar
    24    27    28    1
    25     9     1   ar
    26    27    21   ar
    27     8     4   ar
    28    12    13    1
    29    17    18    1
    30    19    20    1
@<TRIPOS>MOLECULE
*****
 28 30 0 0 0
SMALL
GASTEIGER

@<TRIPOS>ATOM
      1 C         142.3979  140.6875  166.6958 C.ar    1  UNL1        0.0857
      2 C         143.0134  141.9327  167.2618 C.ar    1  UNL1        0.0089
      3 C         142.3936  142.6011  168.4532 C.ar    1  UNL1        0.0194
      4 C         141.1582  142.0241  169.0784 C.ar    1  UNL1        0.0857
      5 C         140.3298  142.4592  170.2507 C.ar    1  UNL1        0.1181
      6 N         139.2022  141.4828  170.4092 N.ar    1  UNL1       -0.2220
      7 C         139.3337  140.4443  169.3348 C.ar    1  UNL1        0.1837
      8 N         140.5426  140.7789  168.5123 N.ar    1  UNL1       -0.2759
      9 C         141.1625  140.1106  167.3210 C.ar    1  UNL1        0.1224
     10 O         143.6678  138.6755  165.6522 O.2     1  UNL1       -0.2680
     11 C         143.0177  140.0191  165.5045 C.2     1  UNL1        0.2706
     12 N         142.9873  140.6945  164.1655 N.am    1  UNL1       -0.1896
     13 H         142.5606  141.5764  164.0686 H       1  UNL1        0.1828
     14 O         143.6070  140.0261  162.9742 O.3     1  UNL1       -0.2635
     15 C         144.4114  140.8310  161.9967 C.3     1  UNL1        0.2026
     16 C         145.2009  142.0151  162.4706 C.3     1  UNL1        0.1719
     17 O         146.4546  141.8100  163.2684 O.3     1  UNL1       -0.3794
     18 H         146.2317  141.4105  164.1237 H       1  UNL1        0.2105
     19 N         140.5469  138.8653  166.7549 N.pl3   1  UNL1       -0.2971
     20 H         140.5818  138.0235  167.2643 H       1  UNL1        0.1536
     21 C         139.8780  138.9026  165.4127 C.ar    1  UNL1        0.0772
     22 C         138.9277  140.0143  165.0791 C.ar    1  UNL1        0.0174
     23 C         138.2589  140.0516  163.7369 C.ar    1  UNL1        0.0072
     24 C         138.5403  138.9773  162.7286 C.ar    1  UNL1        0.0324
     25 I         137.8715  139.0146  161.3865 I       1  UNL1       -0.0424
     26 C         139.4906  137.8658  163.0623 C.ar    1  UNL1        0.0367
     27 C         140.1594  137.8285  164.4044 C.ar    1  UNL1        0.1539
     28 F         141.1097  136.7168  164.7381 F       1  UNL1       -0.2028
@<TRIPOS>BOND
     1    10    11    2
     2    11    12   am
     3    12    14    1
     4    14    15    1
     5    15    16    1
     6    16    17    1
     7    11     1    1
     8     1     2   ar
     9     2     3   ar
    10     3     4   ar
    11     4     5   ar
    12     5     6   ar
    13     6     7   ar
    14     7     8   ar
    15     8     9   ar
    16     9    19    1
    17    19    21    1
    18    21    22   ar
    19    22    23   ar
    20    23    24   ar
    21    24    25    1
    22    24    26   ar
    23    26    27   ar
    24    27    28    1
    25     9     1   ar
    26    27    21   ar
    27     8     4   ar
    28    12    13    1
    29    17    18    1
    30    19    20    1
@<TRIPOS>MOLECULE
*****
 28 30 0 0 0
SMALL
GASTEIGER

@<TRIPOS>ATOM
      1 C         141.5582  139.4150  165.8198 C.ar    1  UNL1        0.0857
      2 C         141.9986  138.0574  165.3584 C.ar    1  UNL1        0.0089
      3 C         141.2378  137.3495  164.2766 C.ar    1  UNL1        0.0194
      4 C         140.0366  137.9994  163.6563 C.ar    1  UNL1        0.0857
      5 C         139.0954  137.5480  162.5790 C.ar    1  UNL1        0.1181
      6 N         138.0733  138.6267  162.3747 N.ar    1  UNL1       -0.2220
      7 C         138.3828  139.7447  163.3256 C.ar    1  UNL1        0.1837
      8 N         139.5962  139.3570  164.1177 N.ar    1  UNL1       -0.2759
      9 C         140.3570  140.0648  165.1994 C.ar    1  UNL1        0.1224
     10 O         142.9498  141.4554  166.6260 O.2     1  UNL1       -0.2680
     11 C         142.3189  140.1228  166.9016 C.2     1  UNL1        0.2706
     12 N         142.4488  139.4980  168.2590 N.am    1  UNL1       -0.1896
     13 H         142.0347  138.6233  168.4400 H       1  UNL1        0.1828
     14 O         143.2095  140.2057  169.3409 O.3     1  UNL1       -0.2635
     15 C         142.5595  141.3170  170.1109 C.3     1  UNL1        0.2026
     16 C         143.1922  142.6766  170.1436 C.3     1  UNL1        0.1719
     17 O         144.6847  142.8077  170.2170 O.3     1  UNL1       -0.3794
     18 H         144.9982  142.4621  171.0675 H       1  UNL1        0.2105
     19 N         139.9166  141.4224  165.6609 N.pl3   1  UNL1       -0.2971
     20 H         139.6464  141.5603  166.5975 H       1  UNL1        0.1536
     21 C         139.8878  142.5700  164.6952 C.ar    1  UNL1        0.0772
     22 C         141.1705  143.1194  164.1450 C.ar    1  UNL1        0.0174
     23 C         141.1417  144.2670  163.1793 C.ar    1  UNL1        0.0072
     24 C         139.8303  144.8649  162.7640 C.ar    1  UNL1        0.0324
     25 I         139.8015  146.0124  161.7983 I       1  UNL1       -0.0424
     26 C         138.5476  144.3154  163.3142 C.ar    1  UNL1        0.0367
     27 C         138.5764  143.1679  164.2798 C.ar    1  UNL1        0.1539
     28 F         137.2937  142.6184  164.8301 F       1  UNL1       -0.2028
@<TRIPOS>BOND
     1    10    11    2
     2    11    12   am
     3    12    14    1
     4    14    15    1
     5    15    16    1
     6    16    17    1
     7    11     1    1
     8     1     2   ar
     9     2     3   ar
    10     3     4   ar
    11     4     5   ar
    12     5     6   ar
    13     6     7   ar
    14     7     8   ar
    15     8     9   ar
    16     9    19    1
    17    19    21    1
    18    21    22   ar
    19    22    23   ar
    20    23    24   ar
    21    24    25    1
    22    24    26   ar
    23    26    27   ar
    24    27    28    1
    25     9     1   ar
    26    27    21   ar
    27     8     4   ar
    28    12    13    1
    29    17    18    1
    30    19    20    1
@<TRIPOS>MOLECULE
*****
 28 30 0 0 0
SMALL
GASTEIGER

@<TRIPOS>ATOM
      1 C         138.9585  141.6943  163.3162 C.ar    1  UNL1        0.0857
      2 C         137.8973  140.7549  162.8253 C.ar    1  UNL1        0.0089
      3 C         138.0953  139.2726  162.9421 C.ar    1  UNL1        0.0194
      4 C         139.3546  138.7298  163.5499 C.ar    1  UNL1        0.0857
      5 C         139.8269  137.3276  163.7961 C.ar    1  UNL1        0.1181
      6 N         141.1801  137.4004  164.4392 N.ar    1  UNL1       -0.2220
      7 C         141.5441  138.8477  164.5905 C.ar    1  UNL1        0.1837
      8 N         140.4159  139.6693  164.0409 N.ar    1  UNL1       -0.2759
      9 C         140.2179  141.1516  163.9240 C.ar    1  UNL1        0.1224
     10 O         138.4570  143.9914  164.4216 O.2     1  UNL1       -0.2680
     11 C         138.7605  143.1767  163.1994 C.2     1  UNL1        0.2706
     12 N         138.8661  143.8441  161.8602 N.am    1  UNL1       -0.1896
     13 H         139.0654  143.3093  161.0580 H       1  UNL1        0.1828
     14 O         138.6681  145.3264  161.7433 O.3     1  UNL1       -0.2635
     15 C         139.8184  146.2582  161.9861 C.3     1  UNL1        0.2026
     16 C         141.1001  145.7332  162.5621 C.3     1  UNL1        0.1719
     17 O         141.1782  145.3780  164.0174 O.3     1  UNL1       -0.3794
     18 H         141.0767  146.1809  164.5521 H       1  UNL1        0.2105
     19 N         141.2792  142.0911  164.4150 N.pl3   1  UNL1       -0.2971
     20 H         141.8122  142.6113  163.7712 H       1  UNL1        0.1536
     21 C         141.5282  142.2380  165.8870 C.ar    1  UNL1        0.0772
     22 C         140.3907  142.5547  166.8120 C.ar    1  UNL1        0.0174
     23 C         140.6398  142.7017  168.2840 C.ar    1  UNL1        0.0072
     24 C         142.0263  142.5319  168.8306 C.ar    1  UNL1        0.0324
     25 I         142.2754  142.6788  170.3025 I       1  UNL1       -0.0424
     26 C         143.1637  142.2151  167.9055 C.ar    1  UNL1        0.0367
     27 C         142.9146  142.0682  166.4336 C.ar    1  UNL1        0.1539
     28 F         144.0521  141.7515  165.5084 F       1  UNL1       -0.2028
@<TRIPOS>BOND
     1    10    11    2
     2    11    12   am
     3    12    14    1
     4    14    15    1
     5    15    16    1
     6    16    17    1
     7    11     1    1
     8     1     2   ar
     9     2     3   ar
    10     3     4   ar
    11     4     5   ar
    12     5     6   ar
    13     6     7   ar
    14     7     8   ar
    15     8     9   ar
    16     9    19    1
    17    19    21    1
    18    21    22   ar
    19    22    23   ar
    20    23    24   ar
    21    24    25    1
    22    24    26   ar
    23    26    27   ar
    24    27    28    1
    25     9     1   ar
    26    27    21   ar
    27     8     4   ar
    28    12    13    1
    29    17    18    1
    30    19    20    1
@<TRIPOS>MOLECULE
*****
 28 30 0 0 0
SMALL
GASTEIGER

@<TRIPOS>ATOM
      1 C         140.8082  142.6048  166.8783 C.ar    1  UNL1        0.0857
      2 C         140.3877  143.0485  168.2479 C.ar    1  UNL1        0.0089
      3 C         140.7692  142.2360  169.4497 C.ar    1  UNL1        0.0194
      4 C         141.5713  140.9796  169.2817 C.ar    1  UNL1        0.0857
      5 C         142.0913  139.9808  170.2726 C.ar    1  UNL1        0.1181
      6 N         142.8332  138.9197  169.5152 N.ar    1  UNL1       -0.2220
      7 C         142.7718  139.2628  168.0562 C.ar    1  UNL1        0.1837
      8 N         141.9919  140.5359  167.9119 N.ar    1  UNL1       -0.2759
      9 C         141.6103  141.3485  166.7102 C.ar    1  UNL1        0.1224
     10 O         141.4752  143.8303  164.6866 O.2     1  UNL1       -0.2680
     11 C         140.4266  143.4174  165.6765 C.2     1  UNL1        0.2706
     12 N         138.9965  143.8170  165.4647 N.am    1  UNL1       -0.1896
     13 H         138.3082  143.5460  166.1144 H       1  UNL1        0.1828
     14 O         138.6149  144.6296  164.2630 O.3     1  UNL1       -0.2635
     15 C         138.3215  143.9481  162.9592 C.3     1  UNL1        0.2026
     16 C         137.5986  142.6339  162.9459 C.3     1  UNL1        0.1719
     17 O         137.3528  141.9003  164.2311 O.3     1  UNL1       -0.3794
     18 H         138.2000  141.6158  164.6082 H       1  UNL1        0.2105
     19 N         142.0309  140.9048  165.3404 N.pl3   1  UNL1       -0.2971
     20 H         142.9674  141.0085  165.0553 H       1  UNL1        0.1536
     21 C         141.0243  140.3030  164.4050 C.ar    1  UNL1        0.0772
     22 C         139.9967  139.3425  164.9261 C.ar    1  UNL1        0.0174
     23 C         138.9902  138.7407  163.9907 C.ar    1  UNL1        0.0072
     24 C         139.0114  139.0994  162.5344 C.ar    1  UNL1        0.0324
     25 I         138.0050  138.4977  161.5990 I       1  UNL1       -0.0424
     26 C         140.0391  140.0599  162.0134 C.ar    1  UNL1        0.0367
     27 C         141.0455  140.6617  162.9488 C.ar    1  UNL1        0.1539
     28 F         142.0732  141.6222  162.4277 F       1  UNL1       -0.2028
@<TRIPOS>BOND
     1    10    11    2
     2    11    12   am
     3    12    14    1
     4    14    15    1
     5    15    16    1
     6    16    17    1
     7    11     1    1
     8     1     2   ar
     9     2     3   ar
    10     3     4   ar
    11     4     5   ar
    12     5     6   ar
    13     6     7   ar
    14     7     8   ar
    15     8     9   ar
    16     9    19    1
    17    19    21    1
    18    21    22   ar
    19    22    23   ar
    20    23    24   ar
    21    24    25    1
    22    24    26   ar
    23    26    27   ar
    24    27    28    1
    25     9     1   ar
    26    27    21   ar
    27     8     4   ar
    28    12    13    1
    29    17    18    1
    30    19    20    1
