@<TRIPOS>MOLECULE
*****
 36 38 0 0 0
SMALL
GASTEIGER

@<TRIPOS>ATOM
      1 C         140.4184  139.9058  167.0114 C.ar    1  UNL1        0.0730
      2 C         140.2618  139.1577  165.7207 C.ar    1  UNL1        0.0322
      3 C         139.0264  138.3446  165.4703 C.ar    1  UNL1        0.0653
      4 C         137.9477  138.2795  166.5105 C.ar    1  UNL1        0.1133
      5 N         138.1043  139.0275  167.8012 N.ar    1  UNL1       -0.2367
      6 C         139.3396  139.8407  168.0517 C.ar    1  UNL1        0.1476
      7 C         139.4963  140.5887  169.3424 C.2     1  UNL1        0.2617
      8 N         139.1911  139.9097  170.6445 N.am    1  UNL1       -0.3240
      9 O         139.9581  142.0159  169.3308 O.2     1  UNL1       -0.2687
     10 H         138.8880  138.9731  170.6521 H       1  UNL1        0.1453
     11 H         139.2939  140.4007  171.4917 H       1  UNL1        0.1453
     12 N         141.6537  140.7189  167.2618 N.pl3   1  UNL1       -0.2966
     13 H         142.0156  140.7962  168.1741 H       1  UNL1        0.1537
     14 C         145.4737  140.9042  163.7442 C.3     1  UNL1        0.0521
     15 C         144.2476  141.5071  164.3635 C.ar    1  UNL1        0.0605
     16 C         143.7056  142.8053  163.8432 C.ar    1  UNL1        0.0128
     17 C         142.4796  143.4081  164.4625 C.ar    1  UNL1        0.0057
     18 C         141.7956  142.7127  165.6020 C.ar    1  UNL1        0.0324
     19 C         142.3377  141.4144  166.1223 C.ar    1  UNL1        0.1315
     20 N         143.5637  140.8116  165.5030 N.ar    1  UNL1       -0.2349
     21 C         141.9375  144.7064  163.9422 C.3     1  UNL1        0.1072
     22 C         140.5546  144.2925  164.3498 C.3     1  UNL1        0.0339
     23 C         143.3204  145.1204  163.5346 C.3     1  UNL1        0.0339
     24 O         141.3955  146.0047  163.4219 O.3     1  UNL1       -0.3827
     25 H         140.4356  146.0321  163.5583 H       1  UNL1        0.2107
     26 N         138.8698  137.5965  164.1796 N.pl3   1  UNL1       -0.3316
     27 H         138.6360  136.6402  164.1901 H       1  UNL1        0.1468
     28 C         139.0693  138.3056  162.8728 C.3     1  UNL1        0.0833
     29 C         138.0436  139.2865  162.3875 C.3     1  UNL1        0.0208
     30 C         138.2431  139.9956  161.0808 C.3     1  UNL1        0.0018
     31 C         139.4683  139.7235  160.2593 C.3     1  UNL1        0.0015
     32 C         140.4941  138.7425  160.7447 C.3     1  UNL1        0.0172
     33 C         140.2945  138.0335  162.0514 C.3     1  UNL1        0.0689
     34 N         141.3203  137.0525  162.5367 N.3     1  UNL1       -0.3209
     35 H         141.0254  136.6684  163.4344 H       1  UNL1        0.1189
     36 H         142.2173  137.5252  162.6473 H       1  UNL1        0.1189
@<TRIPOS>BOND
     1    14    15    1
     2    15    16   ar
     3    16    17   ar
     4    17    21    1
     5    21    22    1
     6    21    23    1
     7    21    24    1
     8    17    18   ar
     9    18    19   ar
    10    19    12    1
    11    12     1    1
    12     1     2   ar
    13     2     3   ar
    14     3    26    1
    15    28    26    1
    16    28    29    1
    17    29    30    1
    18    30    31    1
    19    31    32    1
    20    32    33    1
    21    33    34    1
    22     3     4   ar
    23     4     5   ar
    24     5     6   ar
    25     6     7    1
    26     7     8   am
    27     7     9    2
    28    19    20   ar
    29    20    15   ar
    30     6     1   ar
    31    33    28    1
    32    24    25    1
    33    12    13    1
    34    26    27    1
    35    34    35    1
    36    34    36    1
    37     8    10    1
    38     8    11    1
@<TRIPOS>MOLECULE
*****
 36 38 0 0 0
SMALL
GASTEIGER

@<TRIPOS>ATOM
      1 C         140.2592  140.0916  166.3860 C.ar    1  UNL1        0.0730
      2 C         140.0321  139.3003  165.1321 C.ar    1  UNL1        0.0322
      3 C         138.9471  138.2655  165.0844 C.ar    1  UNL1        0.0653
      4 C         138.0893  138.0221  166.2906 C.ar    1  UNL1        0.1133
      5 N         138.3164  138.8133  167.5445 N.ar    1  UNL1       -0.2367
      6 C         139.4013  139.8480  167.5923 C.ar    1  UNL1        0.1476
      7 C         139.6284  140.6393  168.8462 C.2     1  UNL1        0.2617
      8 N         139.4362  139.9930  170.1860 N.am    1  UNL1       -0.3240
      9 O         140.0477  142.0770  168.7602 O.2     1  UNL1       -0.2687
     10 H         139.1610  139.0494  170.2425 H       1  UNL1        0.1453
     11 H         139.5853  140.5123  171.0090 H       1  UNL1        0.1453
     12 N         141.3440  141.1263  166.4338 N.pl3   1  UNL1       -0.2966
     13 H         142.0879  141.0305  167.0716 H       1  UNL1        0.1537
     14 C         143.7536  145.0201  163.9777 C.3     1  UNL1        0.0521
     15 C         142.5004  144.2538  164.2818 C.ar    1  UNL1        0.0605
     16 C         141.1989  144.6682  163.6619 C.ar    1  UNL1        0.0128
     17 C         139.9457  143.9020  163.9660 C.ar    1  UNL1        0.0057
     18 C         139.9941  142.7214  164.8899 C.ar    1  UNL1        0.0324
     19 C         141.2956  142.3070  165.5098 C.ar    1  UNL1        0.1315
     20 N         142.5488  143.0732  165.2057 N.ar    1  UNL1       -0.2349
     21 C         138.6442  144.3164  163.3461 C.3     1  UNL1        0.1072
     22 C         137.9093  143.3916  164.2705 C.3     1  UNL1        0.0339
     23 C         139.3790  145.2412  162.4216 C.3     1  UNL1        0.0339
     24 O         137.3427  144.7309  162.7262 O.3     1  UNL1       -0.3827
     25 H         136.6141  144.2564  163.1562 H       1  UNL1        0.2107
     26 N         138.7200  137.4743  163.8305 N.pl3   1  UNL1       -0.3316
     27 H         138.4510  136.5289  163.8869 H       1  UNL1        0.1468
     28 C         138.9028  138.1234  162.4906 C.3     1  UNL1        0.0833
     29 C         137.7956  138.9430  161.8970 C.3     1  UNL1        0.0208
     30 C         137.9784  139.5922  160.5571 C.3     1  UNL1        0.0018
     31 C         139.2683  139.4217  159.8108 C.3     1  UNL1        0.0015
     32 C         140.3755  138.6020  160.4045 C.3     1  UNL1        0.0172
     33 C         140.1927  137.9529  161.7443 C.3     1  UNL1        0.0689
     34 N         141.2999  137.1332  162.3379 N.3     1  UNL1       -0.3209
     35 H         141.0057  136.7703  163.2447 H       1  UNL1        0.1189
     36 H         142.1282  137.7164  162.4576 H       1  UNL1        0.1189
@<TRIPOS>BOND
     1    14    15    1
     2    15    16   ar
     3    16    17   ar
     4    17    21    1
     5    21    22    1
     6    21    23    1
     7    21    24    1
     8    17    18   ar
     9    18    19   ar
    10    19    12    1
    11    12     1    1
    12     1     2   ar
    13     2     3   ar
    14     3    26    1
    15    28    26    1
    16    28    29    1
    17    29    30    1
    18    30    31    1
    19    31    32    1
    20    32    33    1
    21    33    34    1
    22     3     4   ar
    23     4     5   ar
    24     5     6   ar
    25     6     7    1
    26     7     8   am
    27     7     9    2
    28    19    20   ar
    29    20    15   ar
    30     6     1   ar
    31    33    28    1
    32    24    25    1
    33    12    13    1
    34    26    27    1
    35    34    35    1
    36    34    36    1
    37     8    10    1
    38     8    11    1
@<TRIPOS>MOLECULE
*****
 36 38 0 0 0
SMALL
GASTEIGER

@<TRIPOS>ATOM
      1 C         140.0936  139.6395  167.0799 C.ar    1  UNL1        0.0730
      2 C         141.1541  139.1639  166.1317 C.ar    1  UNL1        0.0322
      3 C         142.5653  138.9913  166.6101 C.ar    1  UNL1        0.0653
      4 C         142.9160  139.2944  168.0367 C.ar    1  UNL1        0.1133
      5 N         141.8555  139.7701  168.9849 N.ar    1  UNL1       -0.2367
      6 C         140.4443  139.9426  168.5065 C.ar    1  UNL1        0.1476
      7 C         139.3838  140.4183  169.4547 C.2     1  UNL1        0.2617
      8 N         139.5923  141.6774  170.2428 N.am    1  UNL1       -0.3240
      9 O         138.1147  139.6347  169.6149 O.2     1  UNL1       -0.2687
     10 H         140.4252  142.1917  170.1377 H       1  UNL1        0.1453
     11 H         138.8963  141.9896  170.8651 H       1  UNL1        0.1453
     12 N         138.6825  139.8120  166.6015 N.pl3   1  UNL1       -0.2966
     13 H         137.9333  139.7136  167.2326 H       1  UNL1        0.1537
     14 C         137.9301  138.2470  161.7041 C.3     1  UNL1        0.0521
     15 C         138.0366  139.3520  162.7129 C.ar    1  UNL1        0.0605
     16 C         137.8734  140.7794  162.2819 C.ar    1  UNL1        0.0128
     17 C         137.9800  141.8844  163.2907 C.ar    1  UNL1        0.0057
     18 C         138.2496  141.5619  164.7305 C.ar    1  UNL1        0.0324
     19 C         138.4128  140.1345  165.1616 C.ar    1  UNL1        0.1315
     20 N         138.3063  139.0296  164.1528 N.ar    1  UNL1       -0.2349
     21 C         137.8168  143.3118  162.8596 C.3     1  UNL1        0.1072
     22 C         138.0189  142.9034  161.4305 C.3     1  UNL1        0.0339
     23 C         137.6146  143.7203  164.2886 C.3     1  UNL1        0.0339
     24 O         137.6536  144.7392  162.4285 O.3     1  UNL1       -0.3827
     25 H         137.7417  144.7979  161.4643 H       1  UNL1        0.2107
     26 N         143.6258  138.5157  165.6619 N.pl3   1  UNL1       -0.3316
     27 H         144.1305  137.6939  165.8599 H       1  UNL1        0.1468
     28 C         143.9174  139.2922  164.4121 C.3     1  UNL1        0.0833
     29 C         144.8335  140.4789  164.4629 C.3     1  UNL1        0.0208
     30 C         145.1251  141.2554  163.2131 C.3     1  UNL1        0.0018
     31 C         144.5006  140.8452  161.9124 C.3     1  UNL1        0.0015
     32 C         143.5845  139.6584  161.8616 C.3     1  UNL1        0.0172
     33 C         143.2929  138.8820  163.1114 C.3     1  UNL1        0.0689
     34 N         142.3768  137.6953  163.0606 N.3     1  UNL1       -0.3209
     35 H         142.2925  137.2907  163.9931 H       1  UNL1        0.1189
     36 H         142.7584  136.9984  162.4209 H       1  UNL1        0.1189
@<TRIPOS>BOND
     1    14    15    1
     2    15    16   ar
     3    16    17   ar
     4    17    21    1
     5    21    22    1
     6    21    23    1
     7    21    24    1
     8    17    18   ar
     9    18    19   ar
    10    19    12    1
    11    12     1    1
    12     1     2   ar
    13     2     3   ar
    14     3    26    1
    15    28    26    1
    16    28    29    1
    17    29    30    1
    18    30    31    1
    19    31    32    1
    20    32    33    1
    21    33    34    1
    22     3     4   ar
    23     4     5   ar
    24     5     6   ar
    25     6     7    1
    26     7     8   am
    27     7     9    2
    28    19    20   ar
    29    20    15   ar
    30     6     1   ar
    31    33    28    1
    32    24    25    1
    33    12    13    1
    34    26    27    1
    35    34    35    1
    36    34    36    1
    37     8    10    1
    38     8    11    1
@<TRIPOS>MOLECULE
*****
 36 38 0 0 0
SMALL
GASTEIGER

@<TRIPOS>ATOM
      1 C         140.1952  140.3126  167.2467 C.ar    1  UNL1        0.0730
      2 C         139.8337  139.8831  165.8557 C.ar    1  UNL1        0.0322
      3 C         138.5991  139.0642  165.6207 C.ar    1  UNL1        0.0653
      4 C         137.7261  138.6747  166.7766 C.ar    1  UNL1        0.1133
      5 N         138.0877  139.1042  168.1676 N.ar    1  UNL1       -0.2367
      6 C         139.3222  139.9231  168.4026 C.ar    1  UNL1        0.1476
      7 C         139.6837  140.3525  169.7936 C.2     1  UNL1        0.2617
      8 N         140.5254  139.4618  170.6586 N.am    1  UNL1       -0.3240
      9 O         139.2036  141.6727  170.3196 O.2     1  UNL1       -0.2687
     10 H         140.8406  138.5954  170.3134 H       1  UNL1        0.1453
     11 H         140.7627  139.7437  171.5715 H       1  UNL1        0.1453
     12 N         141.4297  141.1315  167.4817 N.pl3   1  UNL1       -0.2966
     13 H         141.7542  141.2807  168.3992 H       1  UNL1        0.1537
     14 C         145.3937  140.9843  164.1253 C.3     1  UNL1        0.0521
     15 C         144.1520  141.6495  164.6407 C.ar    1  UNL1        0.0605
     16 C         143.6505  142.9062  163.9934 C.ar    1  UNL1        0.0128
     17 C         142.4088  143.5714  164.5089 C.ar    1  UNL1        0.0057
     18 C         141.6686  142.9799  165.6716 C.ar    1  UNL1        0.0324
     19 C         142.1700  141.7231  166.3189 C.ar    1  UNL1        0.1315
     20 N         143.4117  141.0579  165.8035 N.ar    1  UNL1       -0.2349
     21 C         141.9074  144.8283  163.8615 C.3     1  UNL1        0.1072
     22 C         143.3205  145.2926  163.6682 C.3     1  UNL1        0.0339
     23 C         140.4942  144.3640  164.0548 C.3     1  UNL1        0.0339
     24 O         141.4059  146.0850  163.2142 O.3     1  UNL1       -0.3827
     25 H         142.1594  146.6390  162.9568 H       1  UNL1        0.2107
     26 N         138.2375  138.6347  164.2297 N.pl3   1  UNL1       -0.3316
     27 H         137.6695  137.8426  164.0910 H       1  UNL1        0.1468
     28 C         138.7413  139.4122  163.0499 C.3     1  UNL1        0.0833
     29 C         139.9492  138.9363  162.2985 C.3     1  UNL1        0.0208
     30 C         140.4530  139.7138  161.1188 C.3     1  UNL1        0.0018
     31 C         139.7490  140.9671  160.6904 C.3     1  UNL1        0.0015
     32 C         138.5410  141.4430  161.4419 C.3     1  UNL1        0.0172
     33 C         138.0373  140.6655  162.6216 C.3     1  UNL1        0.0689
     34 N         136.8293  141.1413  163.3730 N.3     1  UNL1       -0.3209
     35 H         136.6297  140.4975  164.1385 H       1  UNL1        0.1189
     36 H         136.0288  141.1778  162.7419 H       1  UNL1        0.1189
@<TRIPOS>BOND
     1    14    15    1
     2    15    16   ar
     3    16    17   ar
     4    17    21    1
     5    21    22    1
     6    21    23    1
     7    21    24    1
     8    17    18   ar
     9    18    19   ar
    10    19    12    1
    11    12     1    1
    12     1     2   ar
    13     2     3   ar
    14     3    26    1
    15    28    26    1
    16    28    29    1
    17    29    30    1
    18    30    31    1
    19    31    32    1
    20    32    33    1
    21    33    34    1
    22     3     4   ar
    23     4     5   ar
    24     5     6   ar
    25     6     7    1
    26     7     8   am
    27     7     9    2
    28    19    20   ar
    29    20    15   ar
    30     6     1   ar
    31    33    28    1
    32    24    25    1
    33    12    13    1
    34    26    27    1
    35    34    35    1
    36    34    36    1
    37     8    10    1
    38     8    11    1
@<TRIPOS>MOLECULE
*****
 36 38 0 0 0
SMALL
GASTEIGER

@<TRIPOS>ATOM
      1 C         140.4496  140.6329  167.5116 C.ar    1  UNL1        0.0730
      2 C         141.4401  141.2816  166.5907 C.ar    1  UNL1        0.0322
      3 C         142.6264  142.0057  167.1551 C.ar    1  UNL1        0.0653
      4 C         142.8220  142.0811  168.6404 C.ar    1  UNL1        0.1133
      5 N         141.8315  141.4324  169.5613 N.ar    1  UNL1       -0.2367
      6 C         140.6453  140.7083  168.9969 C.ar    1  UNL1        0.1476
      7 C         139.6548  140.0596  169.9178 C.2     1  UNL1        0.2617
      8 N         140.0822  139.6127  171.2843 N.am    1  UNL1       -0.3240
      9 O         138.2368  139.8578  169.4720 O.2     1  UNL1       -0.2687
     10 H         141.0128  139.7451  171.5769 H       1  UNL1        0.1453
     11 H         139.4320  139.1869  171.8887 H       1  UNL1        0.1453
     12 N         139.2633  139.9088  166.9472 N.pl3   1  UNL1       -0.2966
     13 H         138.7487  139.2901  167.5144 H       1  UNL1        0.1537
     14 C         138.2820  138.0162  162.2085 C.3     1  UNL1        0.0521
     15 C         138.3704  139.1811  163.1494 C.ar    1  UNL1        0.0605
     16 C         138.0567  140.5645  162.6619 C.ar    1  UNL1        0.0128
     17 C         138.1452  141.7293  163.6028 C.ar    1  UNL1        0.0057
     18 C         138.5474  141.5108  165.0312 C.ar    1  UNL1        0.0324
     19 C         138.8611  140.1274  165.5187 C.ar    1  UNL1        0.1315
     20 N         138.7726  138.9625  164.5779 N.ar    1  UNL1       -0.2349
     21 C         137.8314  143.1128  163.1152 C.3     1  UNL1        0.1072
     22 C         137.9453  142.6387  161.6967 C.3     1  UNL1        0.0339
     23 C         137.7175  143.5869  164.5337 C.3     1  UNL1        0.0339
     24 O         137.5177  144.4962  162.6276 O.3     1  UNL1       -0.3827
     25 H         137.5195  144.5053  161.6577 H       1  UNL1        0.2107
     26 N         143.6169  142.6544  166.2343 N.pl3   1  UNL1       -0.3316
     27 H         144.5521  142.7696  166.5195 H       1  UNL1        0.1468
     28 C         143.1825  143.1276  164.8787 C.3     1  UNL1        0.0833
     29 C         141.8594  143.8143  164.7124 C.3     1  UNL1        0.0208
     30 C         141.4250  144.2874  163.3569 C.3     1  UNL1        0.0018
     31 C         142.3138  144.0739  162.1676 C.3     1  UNL1        0.0015
     32 C         143.6370  143.3872  162.3339 C.3     1  UNL1        0.0172
     33 C         144.0714  142.9141  163.6894 C.3     1  UNL1        0.0689
     34 N         145.3946  142.2273  163.8557 N.3     1  UNL1       -0.3209
     35 H         145.5262  141.9756  164.8354 H       1  UNL1        0.1189
     36 H         146.1428  142.8555  163.5625 H       1  UNL1        0.1189
@<TRIPOS>BOND
     1    14    15    1
     2    15    16   ar
     3    16    17   ar
     4    17    21    1
     5    21    22    1
     6    21    23    1
     7    21    24    1
     8    17    18   ar
     9    18    19   ar
    10    19    12    1
    11    12     1    1
    12     1     2   ar
    13     2     3   ar
    14     3    26    1
    15    28    26    1
    16    28    29    1
    17    29    30    1
    18    30    31    1
    19    31    32    1
    20    32    33    1
    21    33    34    1
    22     3     4   ar
    23     4     5   ar
    24     5     6   ar
    25     6     7    1
    26     7     8   am
    27     7     9    2
    28    19    20   ar
    29    20    15   ar
    30     6     1   ar
    31    33    28    1
    32    24    25    1
    33    12    13    1
    34    26    27    1
    35    34    35    1
    36    34    36    1
    37     8    10    1
    38     8    11    1
@<TRIPOS>MOLECULE
*****
 36 38 0 0 0
SMALL
GASTEIGER

@<TRIPOS>ATOM
      1 C         140.0091  139.8815  165.0715 C.ar    1  UNL1        0.0730
      2 C         140.3976  140.0687  166.5082 C.ar    1  UNL1        0.0322
      3 C         139.4597  139.6459  167.5999 C.ar    1  UNL1        0.0653
      4 C         138.1335  139.0360  167.2550 C.ar    1  UNL1        0.1133
      5 N         137.7450  138.8489  165.8183 N.ar    1  UNL1       -0.2367
      6 C         138.6827  139.2717  164.7266 C.ar    1  UNL1        0.1476
      7 C         138.2942  139.0845  163.2899 C.2     1  UNL1        0.2617
      8 N         137.5509  140.1682  162.5667 N.am    1  UNL1       -0.3240
      9 O         138.6492  137.8137  162.5764 O.2     1  UNL1       -0.2687
     10 H         137.3179  141.0023  163.0350 H       1  UNL1        0.1453
     11 H         137.2959  140.0454  161.6238 H       1  UNL1        0.1453
     12 N         140.9468  140.3043  163.9798 N.pl3   1  UNL1       -0.2966
     13 H         141.2938  139.6380  163.3435 H       1  UNL1        0.1537
     14 C         144.3568  144.1087  164.9282 C.3     1  UNL1        0.0521
     15 C         143.0611  143.6444  164.3318 C.ar    1  UNL1        0.0605
     16 C         142.1746  144.6180  163.6134 C.ar    1  UNL1        0.0128
     17 C         140.8789  144.1537  163.0171 C.ar    1  UNL1        0.0057
     18 C         140.4696  142.7159  163.1392 C.ar    1  UNL1        0.0324
     19 C         141.3561  141.7422  163.8577 C.ar    1  UNL1        0.1315
     20 N         142.6518  142.2065  164.4540 N.ar    1  UNL1       -0.2349
     21 C         139.9924  145.1274  162.2986 C.3     1  UNL1        0.1072
     22 C         140.9910  145.2131  161.1826 C.3     1  UNL1        0.0339
     23 C         138.9939  145.0417  163.4145 C.3     1  UNL1        0.0339
     24 O         139.1060  146.1011  161.5801 O.3     1  UNL1       -0.3827
     25 H         139.5237  146.3632  160.7449 H       1  UNL1        0.2107
     26 N         139.8482  139.8330  169.0366 N.pl3   1  UNL1       -0.3316
     27 H         139.4332  139.2771  169.7352 H       1  UNL1        0.1468
     28 C         140.8690  140.8672  169.4090 C.3     1  UNL1        0.0833
     29 C         140.4504  142.2918  169.6214 C.3     1  UNL1        0.0208
     30 C         141.4711  143.3260  169.9938 C.3     1  UNL1        0.0018
     31 C         142.9106  142.9354  170.1536 C.3     1  UNL1        0.0015
     32 C         143.3292  141.5107  169.9411 C.3     1  UNL1        0.0172
     33 C         142.3084  140.4767  169.5688 C.3     1  UNL1        0.0689
     34 N         142.7271  139.0520  169.3563 N.3     1  UNL1       -0.3209
     35 H         141.9113  138.4909  169.1111 H       1  UNL1        0.1189
     36 H         143.1445  138.6888  170.2132 H       1  UNL1        0.1189
@<TRIPOS>BOND
     1    14    15    1
     2    15    16   ar
     3    16    17   ar
     4    17    21    1
     5    21    22    1
     6    21    23    1
     7    21    24    1
     8    17    18   ar
     9    18    19   ar
    10    19    12    1
    11    12     1    1
    12     1     2   ar
    13     2     3   ar
    14     3    26    1
    15    28    26    1
    16    28    29    1
    17    29    30    1
    18    30    31    1
    19    31    32    1
    20    32    33    1
    21    33    34    1
    22     3     4   ar
    23     4     5   ar
    24     5     6   ar
    25     6     7    1
    26     7     8   am
    27     7     9    2
    28    19    20   ar
    29    20    15   ar
    30     6     1   ar
    31    33    28    1
    32    24    25    1
    33    12    13    1
    34    26    27    1
    35    34    35    1
    36    34    36    1
    37     8    10    1
    38     8    11    1
@<TRIPOS>MOLECULE
*****
 36 38 0 0 0
SMALL
GASTEIGER

@<TRIPOS>ATOM
      1 C         140.9443  140.5064  168.6669 C.ar    1  UNL1        0.0730
      2 C         140.1030  140.0129  167.5273 C.ar    1  UNL1        0.0322
      3 C         138.7047  139.5325  167.7805 C.ar    1  UNL1        0.0653
      4 C         138.1477  139.5458  169.1732 C.ar    1  UNL1        0.1133
      5 N         138.9891  140.0393  170.3127 N.ar    1  UNL1       -0.2367
      6 C         140.3873  140.5196  170.0596 C.ar    1  UNL1        0.1476
      7 C         141.2286  141.0132  171.1992 C.2     1  UNL1        0.2617
      8 N         142.5254  140.3328  171.5237 N.am    1  UNL1       -0.3240
      9 O         140.7731  142.1871  172.0143 O.2     1  UNL1       -0.2687
     10 H         142.8244  139.5623  170.9888 H       1  UNL1        0.1453
     11 H         143.0776  140.6567  172.2717 H       1  UNL1        0.1453
     12 N         142.3426  140.9867  168.4138 N.pl3   1  UNL1       -0.2966
     13 H         142.9545  141.1408  169.1695 H       1  UNL1        0.1537
     14 C         144.1510  144.2241  164.7738 C.3     1  UNL1        0.0521
     15 C         143.7128  142.8510  165.1893 C.ar    1  UNL1        0.0605
     16 C         143.7406  141.7235  164.2004 C.ar    1  UNL1        0.0128
     17 C         143.3024  140.3505  164.6159 C.ar    1  UNL1        0.0057
     18 C         142.8364  140.1049  166.0204 C.ar    1  UNL1        0.0324
     19 C         142.8086  141.2323  167.0093 C.ar    1  UNL1        0.1315
     20 N         143.2468  142.6054  166.5938 N.ar    1  UNL1       -0.2349
     21 C         143.3302  139.2230  163.6269 C.3     1  UNL1        0.1072
     22 C         143.8279  140.1629  162.5693 C.3     1  UNL1        0.0339
     23 C         142.8325  138.2830  164.6846 C.3     1  UNL1        0.0339
     24 O         143.3580  138.0955  162.6380 O.3     1  UNL1       -0.3827
     25 H         143.6674  138.4256  161.7800 H       1  UNL1        0.2107
     26 N         137.8634  139.0390  166.6409 N.pl3   1  UNL1       -0.3316
     27 H         136.9222  138.7940  166.7939 H       1  UNL1        0.1468
     28 C         138.4561  138.9188  165.2682 C.3     1  UNL1        0.0833
     29 C         139.1182  137.6406  164.8464 C.3     1  UNL1        0.0208
     30 C         139.7109  137.5204  163.4737 C.3     1  UNL1        0.0018
     31 C         139.6415  138.6784  162.5228 C.3     1  UNL1        0.0015
     32 C         138.9794  139.9567  162.9446 C.3     1  UNL1        0.0172
     33 C         138.3867  140.0768  164.3173 C.3     1  UNL1        0.0689
     34 N         137.7246  141.3550  164.7391 N.3     1  UNL1       -0.3209
     35 H         137.3809  141.2606  165.6948 H       1  UNL1        0.1189
     36 H         136.9432  141.5552  164.1149 H       1  UNL1        0.1189
@<TRIPOS>BOND
     1    14    15    1
     2    15    16   ar
     3    16    17   ar
     4    17    21    1
     5    21    22    1
     6    21    23    1
     7    21    24    1
     8    17    18   ar
     9    18    19   ar
    10    19    12    1
    11    12     1    1
    12     1     2   ar
    13     2     3   ar
    14     3    26    1
    15    28    26    1
    16    28    29    1
    17    29    30    1
    18    30    31    1
    19    31    32    1
    20    32    33    1
    21    33    34    1
    22     3     4   ar
    23     4     5   ar
    24     5     6   ar
    25     6     7    1
    26     7     8   am
    27     7     9    2
    28    19    20   ar
    29    20    15   ar
    30     6     1   ar
    31    33    28    1
    32    24    25    1
    33    12    13    1
    34    26    27    1
    35    34    35    1
    36    34    36    1
    37     8    10    1
    38     8    11    1
@<TRIPOS>MOLECULE
*****
 36 38 0 0 0
SMALL
GASTEIGER

@<TRIPOS>ATOM
      1 C         141.5704  140.7134  167.9999 C.ar    1  UNL1        0.0730
      2 C         140.5005  140.2645  167.0492 C.ar    1  UNL1        0.0322
      3 C         139.1658  139.8262  167.5749 C.ar    1  UNL1        0.0653
      4 C         138.9010  139.8367  169.0513 C.ar    1  UNL1        0.1133
      5 N         139.9709  140.2855  170.0020 N.ar    1  UNL1       -0.2367
      6 C         141.3056  140.7239  169.4763 C.ar    1  UNL1        0.1476
      7 C         142.3755  141.1727  170.4270 C.2     1  UNL1        0.2617
      8 N         142.1025  142.2898  171.3901 N.am    1  UNL1       -0.3240
      9 O         143.7183  140.5044  170.4147 O.2     1  UNL1       -0.2687
     10 H         141.2212  142.7285  171.3982 H       1  UNL1        0.1453
     11 H         142.8047  142.5844  172.0141 H       1  UNL1        0.1453
     12 N         142.9051  141.1517  167.4742 N.pl3   1  UNL1       -0.2966
     13 H         143.6291  141.3825  168.1002 H       1  UNL1        0.1537
     14 C         143.6486  138.8186  162.8912 C.3     1  UNL1        0.0521
     15 C         143.5086  140.0720  163.7033 C.ar    1  UNL1        0.0605
     16 C         143.6002  141.4122  163.0359 C.ar    1  UNL1        0.0128
     17 C         143.4602  142.6656  163.8479 C.ar    1  UNL1        0.0057
     18 C         143.2285  142.5788  165.3273 C.ar    1  UNL1        0.0324
     19 C         143.1368  141.2386  165.9947 C.ar    1  UNL1        0.1315
     20 N         143.2769  139.9852  165.1827 N.ar    1  UNL1       -0.2349
     21 C         143.5519  144.0058  163.1804 C.3     1  UNL1        0.1072
     22 C         144.5686  143.4592  162.2225 C.3     1  UNL1        0.0339
     23 C         142.5352  144.5523  164.1383 C.3     1  UNL1        0.0339
     24 O         143.6435  145.3460  162.5130 O.3     1  UNL1       -0.3827
     25 H         144.2831  145.3016  161.7851 H       1  UNL1        0.2107
     26 N         138.0959  139.3773  166.6242 N.pl3   1  UNL1       -0.3316
     27 H         137.1694  139.2716  166.9400 H       1  UNL1        0.1468
     28 C         138.4376  139.0895  165.1922 C.3     1  UNL1        0.0833
     29 C         139.0460  137.7709  164.8168 C.3     1  UNL1        0.0208
     30 C         139.3877  137.4831  163.3848 C.3     1  UNL1        0.0018
     31 C         139.1210  138.5139  162.3283 C.3     1  UNL1        0.0015
     32 C         138.5125  139.8326  162.7038 C.3     1  UNL1        0.0172
     33 C         138.1708  140.1204  164.1357 C.3     1  UNL1        0.0689
     34 N         137.5623  141.4390  164.5112 N.3     1  UNL1       -0.3209
     35 H         137.3967  141.4629  165.5174 H       1  UNL1        0.1189
     36 H         136.6774  141.5579  164.0180 H       1  UNL1        0.1189
@<TRIPOS>BOND
     1    14    15    1
     2    15    16   ar
     3    16    17   ar
     4    17    21    1
     5    21    22    1
     6    21    23    1
     7    21    24    1
     8    17    18   ar
     9    18    19   ar
    10    19    12    1
    11    12     1    1
    12     1     2   ar
    13     2     3   ar
    14     3    26    1
    15    28    26    1
    16    28    29    1
    17    29    30    1
    18    30    31    1
    19    31    32    1
    20    32    33    1
    21    33    34    1
    22     3     4   ar
    23     4     5   ar
    24     5     6   ar
    25     6     7    1
    26     7     8   am
    27     7     9    2
    28    19    20   ar
    29    20    15   ar
    30     6     1   ar
    31    33    28    1
    32    24    25    1
    33    12    13    1
    34    26    27    1
    35    34    35    1
    36    34    36    1
    37     8    10    1
    38     8    11    1
@<TRIPOS>MOLECULE
*****
 36 38 0 0 0
SMALL
GASTEIGER

@<TRIPOS>ATOM
      1 C         140.7146  141.1303  167.5483 C.ar    1  UNL1        0.0730
      2 C         141.6507  141.7364  166.5451 C.ar    1  UNL1        0.0322
      3 C         142.9644  142.3053  166.9932 C.ar    1  UNL1        0.0653
      4 C         143.3419  142.2681  168.4444 C.ar    1  UNL1        0.1133
      5 N         142.4058  141.6620  169.4476 N.ar    1  UNL1       -0.2367
      6 C         141.0922  141.0931  168.9996 C.ar    1  UNL1        0.1476
      7 C         140.1561  140.4870  170.0027 C.2     1  UNL1        0.2617
      8 N         140.5890  139.2997  170.8107 N.am    1  UNL1       -0.3240
      9 O         138.7871  141.0683  170.1979 O.2     1  UNL1       -0.2687
     10 H         141.4875  138.9182  170.6826 H       1  UNL1        0.1453
     11 H         139.9746  138.9019  171.4692 H       1  UNL1        0.1453
     12 N         139.4010  140.5614  167.1003 N.pl3   1  UNL1       -0.2966
     13 H         138.8424  140.0549  167.7332 H       1  UNL1        0.1537
     14 C         137.7377  143.7131  163.3186 C.3     1  UNL1        0.0521
     15 C         138.1068  142.3401  163.7970 C.ar    1  UNL1        0.0605
     16 C         138.0133  141.1701  162.8631 C.ar    1  UNL1        0.0128
     17 C         138.3824  139.7972  163.3415 C.ar    1  UNL1        0.0057
     18 C         138.8450  139.5943  164.7539 C.ar    1  UNL1        0.0324
     19 C         138.9384  140.7643  165.6878 C.ar    1  UNL1        0.1315
     20 N         138.5694  142.1372  165.2094 N.ar    1  UNL1       -0.2349
     21 C         138.2889  138.6272  162.4075 C.3     1  UNL1        0.1072
     22 C         137.6552  139.5059  161.3701 C.3     1  UNL1        0.0339
     23 C         138.9226  137.7485  163.4449 C.3     1  UNL1        0.0339
     24 O         138.1954  137.4572  161.4735 O.3     1  UNL1       -0.3827
     25 H         137.7889  137.7407  160.6397 H       1  UNL1        0.2107
     26 N         143.9004  142.9114  165.9900 N.pl3   1  UNL1       -0.3316
     27 H         144.3444  143.7680  166.1858 H       1  UNL1        0.1468
     28 C         144.1600  142.2124  164.6884 C.3     1  UNL1        0.0833
     29 C         144.3978  140.7315  164.6669 C.3     1  UNL1        0.0208
     30 C         144.6574  140.0324  163.3653 C.3     1  UNL1        0.0018
     31 C         144.6792  140.8143  162.0854 C.3     1  UNL1        0.0015
     32 C         144.4414  142.2952  162.1070 C.3     1  UNL1        0.0172
     33 C         144.1818  142.9942  163.4085 C.3     1  UNL1        0.0689
     34 N         143.9440  144.4751  163.4301 N.3     1  UNL1       -0.3209
     35 H         143.7860  144.7801  164.3905 H       1  UNL1        0.1189
     36 H         143.1249  144.6963  162.8640 H       1  UNL1        0.1189
@<TRIPOS>BOND
     1    14    15    1
     2    15    16   ar
     3    16    17   ar
     4    17    21    1
     5    21    22    1
     6    21    23    1
     7    21    24    1
     8    17    18   ar
     9    18    19   ar
    10    19    12    1
    11    12     1    1
    12     1     2   ar
    13     2     3   ar
    14     3    26    1
    15    28    26    1
    16    28    29    1
    17    29    30    1
    18    30    31    1
    19    31    32    1
    20    32    33    1
    21    33    34    1
    22     3     4   ar
    23     4     5   ar
    24     5     6   ar
    25     6     7    1
    26     7     8   am
    27     7     9    2
    28    19    20   ar
    29    20    15   ar
    30     6     1   ar
    31    33    28    1
    32    24    25    1
    33    12    13    1
    34    26    27    1
    35    34    35    1
    36    34    36    1
    37     8    10    1
    38     8    11    1
