@<TRIPOS>MOLECULE
*****
 48 54 0 0 0
SMALL
GASTEIGER

@<TRIPOS>ATOM
      1 C         140.7415  142.1443  162.0118 C.3     1  UNL1        0.0236
      2 C         141.2511  142.9459  163.1728 C.3     1  UNL1        0.0257
      3 C         141.2231  142.3647  164.5554 C.3     1  UNL1        0.0940
      4 N         140.6857  140.9820  164.7770 N.am    1  UNL1       -0.2760
      5 C         140.6577  140.4008  166.1596 C.2     1  UNL1        0.2512
      6 O         140.1203  139.0181  166.3812 O.2     1  UNL1       -0.2698
      7 C         140.1761  140.1804  163.6160 C.3     1  UNL1        0.0940
      8 C         140.2041  140.7615  162.2335 C.3     1  UNL1        0.0257
      9 C         140.3743  141.7788  160.6041 C.ar    1  UNL1       -0.0204
     10 C         141.2027  140.7832  159.8474 C.ar    1  UNL1       -0.0041
     11 C         140.8355  140.4177  158.4396 C.ar    1  UNL1        0.0020
     12 C         139.6399  141.0478  157.7887 C.ar    1  UNL1        0.0296
     13 C         138.8116  142.0434  158.5455 C.ar    1  UNL1        0.1398
     14 F         137.6161  142.6734  157.8946 F       1  UNL1       -0.2042
     15 C         139.1789  142.4088  159.9532 C.ar    1  UNL1        0.0254
     16 C         141.1673  141.2025  167.3205 C.ar    1  UNL1        0.0823
     17 C         140.2114  141.7081  168.3600 C.ar    1  UNL1        0.0267
     18 C         140.7211  142.5097  169.5209 C.ar    1  UNL1        0.1220
     19 C         142.1866  142.8058  169.6422 C.ar    1  UNL1        0.0222
     20 C         143.1424  142.3002  168.6026 C.ar    1  UNL1        0.0312
     21 C         142.6328  141.4986  167.4417 C.ar    1  UNL1        0.1445
     22 F         143.5886  140.9930  166.4022 F       1  UNL1       -0.2040
     23 S         139.7652  143.0153  170.5605 S.O2    1  UNL1        0.0572
     24 N         138.8093  143.5208  171.6001 N.3     1  UNL1       -0.2035
     25 O         139.2639  141.6185  170.7788 O.2     1  UNL1       -0.1532
     26 O         140.2665  144.4121  170.3421 O.2     1  UNL1       -0.1532
     27 H         138.2713  142.7399  171.9757 H       1  UNL1        0.1442
     28 H         138.1750  144.1988  171.1778 H       1  UNL1        0.1442
     29 C         141.1515  143.4000  161.3013 C.3     1  UNL1        0.0215
     30 C         142.6004  143.7814  161.2279 C.3     1  UNL1        0.0723
     31 C         142.6911  143.7804  161.3560 C.3     1  UNL1        0.0893
     32 C         143.1709  142.4317  160.9074 C.3     1  UNL1        0.0386
     33 C         144.1849  141.6867  161.7240 C.3     1  UNL1        0.0594
     34 C         145.1591  141.3264  162.8062 C.3     1  UNL1        0.0174
     35 C         145.1905  142.4534  163.7955 C.3     1  UNL1        0.0174
     36 C         144.2359  143.5103  163.3248 C.3     1  UNL1        0.0594
     37 C         143.2254  144.3838  162.6210 C.3     1  UNL1        0.0386
     38 N         143.6143  143.0364  162.0444 N.3     1  UNL1       -0.2751
     39 C         140.7038  145.5936  162.5636 C.3     1  UNL1        0.0718
     40 C         140.6345  145.4638  161.0708 C.ar    1  UNL1        0.1207
     41 N         139.8408  145.9812  159.9079 N.ar    1  UNL1       -0.2309
     42 C         140.3928  145.3625  158.6579 C.ar    1  UNL1        0.0983
     43 C         140.0086  145.5022  157.2147 C.ar    1  UNL1        0.0206
     44 C         140.7594  144.7421  156.1618 C.ar    1  UNL1        0.0016
     45 C         141.8944  143.8424  156.5522 C.ar    1  UNL1        0.0016
     46 C         142.2785  143.7027  157.9953 C.ar    1  UNL1        0.0188
     47 C         141.5277  144.4628  159.0482 C.ar    1  UNL1        0.0785
     48 N         141.6771  144.5254  160.5395 N.ar    1  UNL1       -0.3167
@<TRIPOS>BOND
     1    39    40    1
     2    40    41   ar
     3    41    42   ar
     4    42    43   ar
     5    43    44   ar
     6    44    45   ar
     7    45    46   ar
     8    46    47   ar
     9    47    48   ar
    10    48    31    1
    11    31    32    1
    12    32    33    1
    13    33    34    1
    14    34    35    1
    15    35    36    1
    16    36    37    1
    17    36    38    1
    18    38    30    1
    19    30    29    1
    20    29     1    1
    21     1     9    1
    22     9    10   ar
    23    10    11   ar
    24    11    12   ar
    25    12    13   ar
    26    13    14    1
    27    13    15   ar
    28     1     2    1
    29     2     3    1
    30     3     4    1
    31     4     5   am
    32     5     6    2
    33     5    16    1
    34    16    17   ar
    35    17    18   ar
    36    18    23    1
    37    23    24    1
    38    23    25    2
    39    23    26    2
    40    18    19   ar
    41    19    20   ar
    42    20    21   ar
    43    21    22    1
    44     4     7    1
    45     7     8    1
    46    48    40   ar
    47    37    31    1
    48     8     1    1
    49    47    42   ar
    50    38    33    1
    51    15     9   ar
    52    21    16   ar
    53    24    27    1
    54    24    28    1
@<TRIPOS>MOLECULE
*****
 48 54 0 0 0
SMALL
GASTEIGER

@<TRIPOS>ATOM
      1 C         140.4659  141.4507  162.0793 C.3     1  UNL1        0.0236
      2 C         141.1601  142.0032  163.2888 C.3     1  UNL1        0.0257
      3 C         140.9972  141.3306  164.6196 C.3     1  UNL1        0.0940
      4 N         140.1402  140.1056  164.7410 N.am    1  UNL1       -0.2760
      5 C         139.9773  139.4330  166.0718 C.2     1  UNL1        0.2512
      6 O         139.1203  138.2080  166.1932 O.2     1  UNL1       -0.2698
      7 C         139.4460  139.5531  163.5315 C.3     1  UNL1        0.0940
      8 C         139.6089  140.2256  162.2007 C.3     1  UNL1        0.0257
      9 C         140.0150  141.3062  160.6559 C.ar    1  UNL1       -0.0204
     10 C         138.5938  141.6102  160.2850 C.ar    1  UNL1       -0.0041
     11 C         138.1428  141.4657  158.8616 C.ar    1  UNL1        0.0020
     12 C         139.1132  141.0172  157.8093 C.ar    1  UNL1        0.0296
     13 C         140.5345  140.7133  158.1804 C.ar    1  UNL1        0.1398
     14 F         141.5047  140.2648  157.1281 F       1  UNL1       -0.2042
     15 C         140.9853  140.8578  159.6037 C.ar    1  UNL1        0.0254
     16 C         140.6715  139.9855  167.2813 C.ar    1  UNL1        0.0823
     17 C         139.9421  140.9148  168.2057 C.ar    1  UNL1        0.0267
     18 C         140.6364  141.4672  169.4151 C.ar    1  UNL1        0.1220
     19 C         142.0601  141.0905  169.7001 C.ar    1  UNL1        0.0222
     20 C         142.7895  140.1613  168.7757 C.ar    1  UNL1        0.0312
     21 C         142.0952  139.6088  167.5663 C.ar    1  UNL1        0.1445
     22 F         142.8246  138.6796  166.6419 F       1  UNL1       -0.2040
     23 S         139.9070  142.3965  170.3395 S.O2    1  UNL1        0.0572
     24 N         139.1776  143.3258  171.2639 N.3     1  UNL1       -0.2035
     25 O         141.0354  143.3798  170.2414 O.2     1  UNL1       -0.1532
     26 O         138.7786  141.4131  170.4376 O.2     1  UNL1       -0.1532
     27 H         139.7358  144.1668  171.4106 H       1  UNL1        0.1442
     28 H         139.0208  142.8616  172.1586 H       1  UNL1        0.1442
     29 C         141.1663  142.6255  161.4636 C.3     1  UNL1        0.0215
     30 C         140.7674  144.0206  161.8444 C.3     1  UNL1        0.0723
     31 C         140.7472  144.0637  161.9940 C.3     1  UNL1        0.0893
     32 C         139.2824  143.8176  161.7843 C.3     1  UNL1        0.0386
     33 C         138.3158  144.0406  162.9094 C.3     1  UNL1        0.0594
     34 C         137.7467  144.3802  164.2550 C.3     1  UNL1        0.0174
     35 C         138.8799  144.7931  165.1468 C.3     1  UNL1        0.0174
     36 C         140.1495  144.7087  164.3523 C.3     1  UNL1        0.0594
     37 C         141.2452  144.5327  163.3288 C.3     1  UNL1        0.0386
     38 N         139.8008  144.2435  162.9695 N.3     1  UNL1       -0.2751
     39 C         143.5275  143.1885  162.4406 C.3     1  UNL1        0.0718
     40 C         143.1402  143.3975  161.0067 C.ar    1  UNL1        0.1207
     41 N         143.7316  143.3046  159.6313 N.ar    1  UNL1       -0.2309
     42 C         142.6708  143.6904  158.6435 C.ar    1  UNL1        0.0983
     43 C         142.6793  143.7829  157.1464 C.ar    1  UNL1        0.0206
     44 C         141.4407  144.2066  156.4142 C.ar    1  UNL1        0.0016
     45 C         140.1936  144.5379  157.1790 C.ar    1  UNL1        0.0016
     46 C         140.1851  144.4455  158.6761 C.ar    1  UNL1        0.0188
     47 C         141.4237  144.0217  159.4084 C.ar    1  UNL1        0.0785
     48 N         141.7138  143.8407  160.8689 N.ar    1  UNL1       -0.3167
@<TRIPOS>BOND
     1    39    40    1
     2    40    41   ar
     3    41    42   ar
     4    42    43   ar
     5    43    44   ar
     6    44    45   ar
     7    45    46   ar
     8    46    47   ar
     9    47    48   ar
    10    48    31    1
    11    31    32    1
    12    32    33    1
    13    33    34    1
    14    34    35    1
    15    35    36    1
    16    36    37    1
    17    36    38    1
    18    38    30    1
    19    30    29    1
    20    29     1    1
    21     1     9    1
    22     9    10   ar
    23    10    11   ar
    24    11    12   ar
    25    12    13   ar
    26    13    14    1
    27    13    15   ar
    28     1     2    1
    29     2     3    1
    30     3     4    1
    31     4     5   am
    32     5     6    2
    33     5    16    1
    34    16    17   ar
    35    17    18   ar
    36    18    23    1
    37    23    24    1
    38    23    25    2
    39    23    26    2
    40    18    19   ar
    41    19    20   ar
    42    20    21   ar
    43    21    22    1
    44     4     7    1
    45     7     8    1
    46    48    40   ar
    47    37    31    1
    48     8     1    1
    49    47    42   ar
    50    38    33    1
    51    15     9   ar
    52    21    16   ar
    53    24    27    1
    54    24    28    1
@<TRIPOS>MOLECULE
*****
 48 54 0 0 0
SMALL
GASTEIGER

@<TRIPOS>ATOM
      1 C         140.9021  141.1621  160.9911 C.3     1  UNL1        0.0236
      2 C         140.2779  140.0204  160.2449 C.3     1  UNL1        0.0257
      3 C         141.0302  139.3498  159.1339 C.3     1  UNL1        0.0940
      4 N         142.4068  139.8208  158.7692 N.am    1  UNL1       -0.2760
      5 C         143.1591  139.1501  157.6582 C.2     1  UNL1        0.2512
      6 O         144.5358  139.6211  157.2935 O.2     1  UNL1       -0.2698
      7 C         143.0311  140.9625  159.5154 C.3     1  UNL1        0.0940
      8 C         142.2788  141.6331  160.6263 C.3     1  UNL1        0.0257
      9 C         141.0684  142.2745  161.9837 C.ar    1  UNL1       -0.0204
     10 C         141.0186  143.7019  161.5258 C.ar    1  UNL1       -0.0041
     11 C         141.1850  144.8142  162.5184 C.ar    1  UNL1        0.0020
     12 C         141.4011  144.4989  163.9689 C.ar    1  UNL1        0.0296
     13 C         141.4509  143.0713  164.4268 C.ar    1  UNL1        0.1398
     14 F         141.6670  142.7561  165.8772 F       1  UNL1       -0.2042
     15 C         141.2845  141.9591  163.4341 C.ar    1  UNL1        0.0254
     16 C         142.5348  138.0084  156.9121 C.ar    1  UNL1        0.0823
     17 C         142.9041  136.5960  157.2564 C.ar    1  UNL1        0.0267
     18 C         142.2797  135.4543  156.5102 C.ar    1  UNL1        0.1220
     19 C         141.2860  135.7252  155.4197 C.ar    1  UNL1        0.0222
     20 C         140.9167  137.1376  155.0754 C.ar    1  UNL1        0.0312
     21 C         141.5411  138.2793  155.8216 C.ar    1  UNL1        0.1445
     22 F         141.1717  139.6917  155.4773 F       1  UNL1       -0.2040
     23 S         142.6490  134.0419  156.8545 S.O2    1  UNL1        0.0572
     24 N         143.0183  132.6293  157.1988 N.3     1  UNL1       -0.2035
     25 O         141.7733  133.5422  155.7439 O.2     1  UNL1       -0.1532
     26 O         143.5247  134.5416  157.9651 O.2     1  UNL1       -0.1532
     27 H         142.5406  131.9888  156.5648 H       1  UNL1        0.1442
     28 H         142.7384  132.4291  158.1590 H       1  UNL1        0.1442
     29 C         139.5833  141.0774  161.7006 C.3     1  UNL1        0.0215
     30 C         138.3206  141.4550  160.9842 C.3     1  UNL1        0.0723
     31 C         138.2894  141.3937  160.8431 C.3     1  UNL1        0.0893
     32 C         138.7839  142.6849  160.2612 C.3     1  UNL1        0.0386
     33 C         138.7953  142.8817  158.7742 C.3     1  UNL1        0.0594
     34 C         138.6318  142.6433  157.3023 C.3     1  UNL1        0.0174
     35 C         138.0674  141.2661  157.1157 C.3     1  UNL1        0.0174
     36 C         137.8822  140.6533  158.4722 C.3     1  UNL1        0.0594
     37 C         137.8064  140.2995  159.9380 C.3     1  UNL1        0.0386
     38 N         138.3320  141.6518  159.4973 N.3     1  UNL1       -0.2751
     39 C         137.7333  143.5904  162.7301 C.3     1  UNL1        0.0718
     40 C         138.0057  142.2554  163.3575 C.ar    1  UNL1        0.1207
     41 N         138.0963  141.6197  164.7131 N.ar    1  UNL1       -0.2309
     42 C         138.4247  140.1684  164.5235 C.ar    1  UNL1        0.0983
     43 C         138.6359  139.0511  165.5017 C.ar    1  UNL1        0.0206
     44 C         138.9595  137.6725  165.0071 C.ar    1  UNL1        0.0016
     45 C         139.0718  137.4112  163.5343 C.ar    1  UNL1        0.0016
     46 C         138.8605  138.5285  162.5561 C.ar    1  UNL1        0.0188
     47 C         138.5370  139.9071  163.0507 C.ar    1  UNL1        0.0785
     48 N         138.2780  141.1969  162.3301 N.ar    1  UNL1       -0.3167
@<TRIPOS>BOND
     1    39    40    1
     2    40    41   ar
     3    41    42   ar
     4    42    43   ar
     5    43    44   ar
     6    44    45   ar
     7    45    46   ar
     8    46    47   ar
     9    47    48   ar
    10    48    31    1
    11    31    32    1
    12    32    33    1
    13    33    34    1
    14    34    35    1
    15    35    36    1
    16    36    37    1
    17    36    38    1
    18    38    30    1
    19    30    29    1
    20    29     1    1
    21     1     9    1
    22     9    10   ar
    23    10    11   ar
    24    11    12   ar
    25    12    13   ar
    26    13    14    1
    27    13    15   ar
    28     1     2    1
    29     2     3    1
    30     3     4    1
    31     4     5   am
    32     5     6    2
    33     5    16    1
    34    16    17   ar
    35    17    18   ar
    36    18    23    1
    37    23    24    1
    38    23    25    2
    39    23    26    2
    40    18    19   ar
    41    19    20   ar
    42    20    21   ar
    43    21    22    1
    44     4     7    1
    45     7     8    1
    46    48    40   ar
    47    37    31    1
    48     8     1    1
    49    47    42   ar
    50    38    33    1
    51    15     9   ar
    52    21    16   ar
    53    24    27    1
    54    24    28    1
@<TRIPOS>MOLECULE
*****
 48 54 0 0 0
SMALL
GASTEIGER

@<TRIPOS>ATOM
      1 C         141.6203  141.8996  164.8914 C.3     1  UNL1        0.0236
      2 C         141.6098  141.0141  163.6807 C.3     1  UNL1        0.0257
      3 C         141.6521  141.6189  162.3087 C.3     1  UNL1        0.0940
      4 N         141.7050  143.1093  162.1474 N.am    1  UNL1       -0.2760
      5 C         141.7474  143.7142  160.7754 C.2     1  UNL1        0.2512
      6 O         141.8002  145.2045  160.6141 O.2     1  UNL1       -0.2698
      7 C         141.7156  143.9948  163.3581 C.3     1  UNL1        0.0940
      8 C         141.6732  143.3900  164.7300 C.3     1  UNL1        0.0257
      9 C         141.6115  142.3180  166.3319 C.ar    1  UNL1       -0.0204
     10 C         140.3699  142.9055  166.9346 C.ar    1  UNL1       -0.0041
     11 C         140.3610  143.3239  168.3751 C.ar    1  UNL1        0.0020
     12 C         141.5938  143.1549  169.2127 C.ar    1  UNL1        0.0296
     13 C         142.8354  142.5674  168.6100 C.ar    1  UNL1        0.1398
     14 F         144.0681  142.3984  169.4477 F       1  UNL1       -0.2042
     15 C         142.8442  142.1490  167.1695 C.ar    1  UNL1        0.0254
     16 C         141.7368  142.8286  159.5647 C.ar    1  UNL1        0.0823
     17 C         143.0272  142.3055  159.0068 C.ar    1  UNL1        0.0267
     18 C         143.0165  141.4199  157.7962 C.ar    1  UNL1        0.1220
     19 C         141.7155  141.0574  157.1435 C.ar    1  UNL1        0.0222
     20 C         140.4251  141.5806  157.7014 C.ar    1  UNL1        0.0312
     21 C         140.4358  142.4661  158.9120 C.ar    1  UNL1        0.1445
     22 F         139.1454  142.9892  159.4700 F       1  UNL1       -0.2040
     23 S         144.3069  140.8968  157.2382 S.O2    1  UNL1        0.0572
     24 N         145.5973  140.3737  156.6803 N.3     1  UNL1       -0.2035
     25 O         144.4744  142.1577  156.4433 O.2     1  UNL1       -0.1532
     26 O         144.1394  139.6358  158.0332 O.2     1  UNL1       -0.1532
     27 H         145.9972  141.0636  156.0442 H       1  UNL1        0.1442
     28 H         145.4218  139.5058  156.1739 H       1  UNL1        0.1442
     29 C         141.5644  140.5546  165.5530 C.3     1  UNL1        0.0215
     30 C         140.3286  139.7123  165.4365 C.3     1  UNL1        0.0723
     31 C         140.2677  139.6789  165.2958 C.3     1  UNL1        0.0893
     32 C         139.2903  140.7896  165.5431 C.3     1  UNL1        0.0386
     33 C         138.2525  141.1190  164.5113 C.3     1  UNL1        0.0594
     34 C         137.4291  141.0948  163.2578 C.3     1  UNL1        0.0174
     35 C         137.9585  140.0025  162.3765 C.3     1  UNL1        0.0174
     36 C         139.1091  139.3516  163.0854 C.3     1  UNL1        0.0594
     37 C         140.2073  138.8977  164.0167 C.3     1  UNL1        0.0386
     38 N         139.2909  140.0417  164.4049 N.3     1  UNL1       -0.2751
     39 C         142.9271  138.6185  164.5892 C.3     1  UNL1        0.0718
     40 C         142.6779  138.8083  166.0561 C.ar    1  UNL1        0.1207
     41 N         143.3736  138.6278  167.3727 N.ar    1  UNL1       -0.2309
     42 C         142.4313  139.0575  168.4578 C.ar    1  UNL1        0.0983
     43 C         142.5719  139.1002  169.9505 C.ar    1  UNL1        0.0206
     44 C         141.4344  139.5889  170.7973 C.ar    1  UNL1        0.0016
     45 C         140.1562  140.0349  170.1513 C.ar    1  UNL1        0.0016
     46 C         140.0155  139.9922  168.6586 C.ar    1  UNL1        0.0188
     47 C         141.1531  139.5035  167.8118 C.ar    1  UNL1        0.0785
     48 N         141.3055  139.3495  166.3275 N.ar    1  UNL1       -0.3167
@<TRIPOS>BOND
     1    39    40    1
     2    40    41   ar
     3    41    42   ar
     4    42    43   ar
     5    43    44   ar
     6    44    45   ar
     7    45    46   ar
     8    46    47   ar
     9    47    48   ar
    10    48    31    1
    11    31    32    1
    12    32    33    1
    13    33    34    1
    14    34    35    1
    15    35    36    1
    16    36    37    1
    17    36    38    1
    18    38    30    1
    19    30    29    1
    20    29     1    1
    21     1     9    1
    22     9    10   ar
    23    10    11   ar
    24    11    12   ar
    25    12    13   ar
    26    13    14    1
    27    13    15   ar
    28     1     2    1
    29     2     3    1
    30     3     4    1
    31     4     5   am
    32     5     6    2
    33     5    16    1
    34    16    17   ar
    35    17    18   ar
    36    18    23    1
    37    23    24    1
    38    23    25    2
    39    23    26    2
    40    18    19   ar
    41    19    20   ar
    42    20    21   ar
    43    21    22    1
    44     4     7    1
    45     7     8    1
    46    48    40   ar
    47    37    31    1
    48     8     1    1
    49    47    42   ar
    50    38    33    1
    51    15     9   ar
    52    21    16   ar
    53    24    27    1
    54    24    28    1
@<TRIPOS>MOLECULE
*****
 48 54 0 0 0
SMALL
GASTEIGER

@<TRIPOS>ATOM
      1 C         140.1603  140.8494  161.8961 C.3     1  UNL1        0.0236
      2 C         140.9711  141.4239  163.0196 C.3     1  UNL1        0.0257
      3 C         140.7759  140.9206  164.4192 C.3     1  UNL1        0.0940
      4 N         139.7699  139.8428  164.6951 N.am    1  UNL1       -0.2760
      5 C         139.5747  139.3396  166.0947 C.2     1  UNL1        0.2512
      6 O         138.5686  138.2618  166.3706 O.2     1  UNL1       -0.2698
      7 C         138.9590  139.2683  163.5715 C.3     1  UNL1        0.0940
      8 C         139.1542  139.7715  162.1721 C.3     1  UNL1        0.0257
      9 C         139.6355  140.6216  160.5094 C.ar    1  UNL1       -0.0204
     10 C         139.9514  139.3449  159.7882 C.ar    1  UNL1       -0.0041
     11 C         139.4266  139.1172  158.4015 C.ar    1  UNL1        0.0020
     12 C         138.5859  140.1662  157.7362 C.ar    1  UNL1        0.0296
     13 C         138.2699  141.4429  158.4574 C.ar    1  UNL1        0.1398
     14 F         137.4292  142.4918  157.7921 F       1  UNL1       -0.2042
     15 C         138.7948  141.6706  159.8441 C.ar    1  UNL1        0.0254
     16 C         140.3856  139.9142  167.2182 C.ar    1  UNL1        0.0823
     17 C         139.7449  140.8421  168.2073 C.ar    1  UNL1        0.0267
     18 C         140.5559  141.4167  169.3308 C.ar    1  UNL1        0.1220
     19 C         142.0075  141.0633  169.4651 C.ar    1  UNL1        0.0222
     20 C         142.6481  140.1353  168.4759 C.ar    1  UNL1        0.0312
     21 C         141.8372  139.5608  167.3525 C.ar    1  UNL1        0.1445
     22 F         142.4778  138.6328  166.3633 F       1  UNL1       -0.2040
     23 S         139.9153  142.3446  170.3200 S.O2    1  UNL1        0.0572
     24 N         139.2747  143.2727  171.3092 N.3     1  UNL1       -0.2035
     25 O         141.0738  143.2879  170.1854 O.2     1  UNL1       -0.1532
     26 O         138.7568  141.4014  170.4546 O.2     1  UNL1       -0.1532
     27 H         139.8723  144.0878  171.4471 H       1  UNL1        0.1442
     28 H         139.1498  142.7884  172.1982 H       1  UNL1        0.1442
     29 C         140.9840  141.8480  161.1386 C.3     1  UNL1        0.0215
     30 C         142.4501  141.6078  160.9311 C.3     1  UNL1        0.0723
     31 C         142.5402  141.5627  161.0514 C.3     1  UNL1        0.0893
     32 C         142.4211  140.1674  160.5135 C.3     1  UNL1        0.0386
     33 C         143.1021  139.0315  161.2177 C.3     1  UNL1        0.0594
     34 C         143.9138  138.2463  162.2050 C.3     1  UNL1        0.0174
     35 C         144.4444  139.2015  163.2327 C.3     1  UNL1        0.0174
     36 C         143.9607  140.5770  162.8806 C.3     1  UNL1        0.0594
     37 C         143.3402  141.8218  162.2935 C.3     1  UNL1        0.0386
     38 N         143.1311  140.4720  161.6352 N.3     1  UNL1       -0.2751
     39 C         142.3354  141.7139  158.1136 C.3     1  UNL1        0.0718
     40 C         141.7106  142.8535  158.8627 C.ar    1  UNL1        0.1207
     41 N         140.9668  144.1297  158.6020 N.ar    1  UNL1       -0.2309
     42 C         140.6556  144.7635  159.9254 C.ar    1  UNL1        0.0983
     43 C         139.9413  146.0318  160.2876 C.ar    1  UNL1        0.0206
     44 C         139.7785  146.4156  161.7284 C.ar    1  UNL1        0.0016
     45 C         140.3301  145.5311  162.8071 C.ar    1  UNL1        0.0016
     46 C         141.0443  144.2628  162.4449 C.ar    1  UNL1        0.0188
     47 C         141.2071  143.8791  161.0040 C.ar    1  UNL1        0.0785
     48 N         141.8591  142.6986  160.3472 N.ar    1  UNL1       -0.3167
@<TRIPOS>BOND
     1    39    40    1
     2    40    41   ar
     3    41    42   ar
     4    42    43   ar
     5    43    44   ar
     6    44    45   ar
     7    45    46   ar
     8    46    47   ar
     9    47    48   ar
    10    48    31    1
    11    31    32    1
    12    32    33    1
    13    33    34    1
    14    34    35    1
    15    35    36    1
    16    36    37    1
    17    36    38    1
    18    38    30    1
    19    30    29    1
    20    29     1    1
    21     1     9    1
    22     9    10   ar
    23    10    11   ar
    24    11    12   ar
    25    12    13   ar
    26    13    14    1
    27    13    15   ar
    28     1     2    1
    29     2     3    1
    30     3     4    1
    31     4     5   am
    32     5     6    2
    33     5    16    1
    34    16    17   ar
    35    17    18   ar
    36    18    23    1
    37    23    24    1
    38    23    25    2
    39    23    26    2
    40    18    19   ar
    41    19    20   ar
    42    20    21   ar
    43    21    22    1
    44     4     7    1
    45     7     8    1
    46    48    40   ar
    47    37    31    1
    48     8     1    1
    49    47    42   ar
    50    38    33    1
    51    15     9   ar
    52    21    16   ar
    53    24    27    1
    54    24    28    1
@<TRIPOS>MOLECULE
*****
 48 54 0 0 0
SMALL
GASTEIGER

@<TRIPOS>ATOM
      1 C         141.1304  141.9792  161.9636 C.3     1  UNL1        0.0236
      2 C         140.4994  141.3021  163.1440 C.3     1  UNL1        0.0257
      3 C         141.1284  141.4195  164.5007 C.3     1  UNL1        0.0940
      4 N         142.3885  142.2140  164.6770 N.am    1  UNL1       -0.2760
      5 C         143.0175  142.3314  166.0337 C.2     1  UNL1        0.2512
      6 O         144.2775  143.1259  166.2100 O.2     1  UNL1       -0.2698
      7 C         143.0195  142.8911  163.4966 C.3     1  UNL1        0.0940
      8 C         142.3905  142.7737  162.1400 C.3     1  UNL1        0.0257
      9 C         141.3504  142.4354  160.5517 C.ar    1  UNL1       -0.0204
     10 C         141.8109  141.4584  159.5109 C.ar    1  UNL1       -0.0041
     11 C         142.0309  141.9146  158.0990 C.ar    1  UNL1        0.0020
     12 C         141.7904  143.3480  157.7279 C.ar    1  UNL1        0.0296
     13 C         141.3299  144.3250  158.7687 C.ar    1  UNL1        0.1398
     14 F         141.0894  145.7583  158.3976 F       1  UNL1       -0.2042
     15 C         141.1099  143.8687  160.1806 C.ar    1  UNL1        0.0254
     16 C         142.3864  141.6543  167.2140 C.ar    1  UNL1        0.0823
     17 C         141.5313  142.4419  168.1619 C.ar    1  UNL1        0.0267
     18 C         140.9003  141.7647  169.3422 C.ar    1  UNL1        0.1220
     19 C         141.1243  140.2998  169.5747 C.ar    1  UNL1        0.0222
     20 C         141.9794  139.5122  168.6268 C.ar    1  UNL1        0.0312
     21 C         142.6104  140.1894  167.4465 C.ar    1  UNL1        0.1445
     22 F         143.4655  139.4017  166.4987 F       1  UNL1       -0.2040
     23 S         140.0452  142.5524  170.2901 S.O2    1  UNL1        0.0572
     24 N         139.1900  143.3400  171.2380 N.3     1  UNL1       -0.2035
     25 O         139.0580  141.4240  170.3371 O.2     1  UNL1       -0.1532
     26 O         141.0324  143.6807  170.2430 O.2     1  UNL1       -0.1532
     27 H         138.3633  142.7951  171.4830 H       1  UNL1        0.1442
     28 H         138.9031  144.2117  170.7928 H       1  UNL1        0.1442
     29 C         139.9468  141.3432  161.2970 C.3     1  UNL1        0.0215
     30 C         138.5596  141.8066  161.6302 C.3     1  UNL1        0.0723
     31 C         138.5102  141.8266  161.7778 C.3     1  UNL1        0.0893
     32 C         138.8585  143.2765  161.6142 C.3     1  UNL1        0.0386
     33 C         138.6395  144.2330  162.7487 C.3     1  UNL1        0.0594
     34 C         138.2678  144.7961  164.0884 C.3     1  UNL1        0.0174
     35 C         137.7393  143.6743  164.9323 C.3     1  UNL1        0.0174
     36 C         137.7842  142.4178  164.1142 C.3     1  UNL1        0.0594
     37 C         137.9430  141.3334  163.0758 C.3     1  UNL1        0.0386
     38 N         138.3406  142.7632  162.7646 N.3     1  UNL1       -0.2751
     39 C         139.2287  138.9984  162.2032 C.3     1  UNL1        0.0718
     40 C         139.0957  139.4210  160.7701 C.ar    1  UNL1        0.1207
     41 N         139.2132  138.8501  159.3880 N.ar    1  UNL1       -0.2309
     42 C         138.9194  139.9462  158.4071 C.ar    1  UNL1        0.0983
     43 C         138.8856  139.9688  156.9077 C.ar    1  UNL1        0.0206
     44 C         138.5528  141.2398  156.1841 C.ar    1  UNL1        0.0016
     45 C         138.2537  142.4883  156.9600 C.ar    1  UNL1        0.0016
     46 C         138.2875  142.4657  158.4594 C.ar    1  UNL1        0.0188
     47 C         138.6204  141.1946  159.1829 C.ar    1  UNL1        0.0785
     48 N         138.7293  140.8700  160.6433 N.ar    1  UNL1       -0.3167
@<TRIPOS>BOND
     1    39    40    1
     2    40    41   ar
     3    41    42   ar
     4    42    43   ar
     5    43    44   ar
     6    44    45   ar
     7    45    46   ar
     8    46    47   ar
     9    47    48   ar
    10    48    31    1
    11    31    32    1
    12    32    33    1
    13    33    34    1
    14    34    35    1
    15    35    36    1
    16    36    37    1
    17    36    38    1
    18    38    30    1
    19    30    29    1
    20    29     1    1
    21     1     9    1
    22     9    10   ar
    23    10    11   ar
    24    11    12   ar
    25    12    13   ar
    26    13    14    1
    27    13    15   ar
    28     1     2    1
    29     2     3    1
    30     3     4    1
    31     4     5   am
    32     5     6    2
    33     5    16    1
    34    16    17   ar
    35    17    18   ar
    36    18    23    1
    37    23    24    1
    38    23    25    2
    39    23    26    2
    40    18    19   ar
    41    19    20   ar
    42    20    21   ar
    43    21    22    1
    44     4     7    1
    45     7     8    1
    46    48    40   ar
    47    37    31    1
    48     8     1    1
    49    47    42   ar
    50    38    33    1
    51    15     9   ar
    52    21    16   ar
    53    24    27    1
    54    24    28    1
@<TRIPOS>MOLECULE
*****
 48 54 0 0 0
SMALL
GASTEIGER

@<TRIPOS>ATOM
      1 C         141.0143  141.8314  161.8426 C.3     1  UNL1        0.0236
      2 C         141.0672  142.4818  163.1932 C.3     1  UNL1        0.0257
      3 C         140.8992  141.6529  164.4320 C.3     1  UNL1        0.0940
      4 N         140.6782  140.1735  164.3202 N.am    1  UNL1       -0.2760
      5 C         140.5101  139.3445  165.5590 C.2     1  UNL1        0.2512
      6 O         140.2891  137.8651  165.4472 O.2     1  UNL1       -0.2698
      7 C         140.6253  139.5230  162.9696 C.3     1  UNL1        0.0940
      8 C         140.7933  140.3519  161.7309 C.3     1  UNL1        0.0257
      9 C         141.0414  141.6759  160.3509 C.ar    1  UNL1       -0.0204
     10 C         142.2052  141.0003  159.6883 C.ar    1  UNL1       -0.0041
     11 C         142.2323  140.8448  158.1965 C.ar    1  UNL1        0.0020
     12 C         141.0955  141.3650  157.3676 C.ar    1  UNL1        0.0296
     13 C         139.9317  142.0406  158.0302 C.ar    1  UNL1        0.1398
     14 F         138.7950  142.5607  157.2012 F       1  UNL1       -0.2042
     15 C         139.9047  142.1960  159.5219 C.ar    1  UNL1        0.0254
     16 C         140.5630  139.9950  166.9096 C.ar    1  UNL1        0.0823
     17 C         141.8001  140.7244  167.3428 C.ar    1  UNL1        0.0267
     18 C         141.8529  141.3749  168.6934 C.ar    1  UNL1        0.1220
     19 C         140.6687  141.2960  169.6107 C.ar    1  UNL1        0.0222
     20 C         139.4316  140.5667  169.1775 C.ar    1  UNL1        0.0312
     21 C         139.3788  139.9162  167.8269 C.ar    1  UNL1        0.1445
     22 F         138.1417  139.1868  167.3936 F       1  UNL1       -0.2040
     23 S         143.0900  142.1042  169.1267 S.O2    1  UNL1        0.0572
     24 N         144.3271  142.8336  169.5600 N.3     1  UNL1       -0.2035
     25 O         142.7604  141.8114  170.5604 O.2     1  UNL1       -0.1532
     26 O         143.4195  142.3970  167.6929 O.2     1  UNL1       -0.1532
     27 H         144.3962  142.8112  170.5774 H       1  UNL1        0.1442
     28 H         144.2791  143.8022  169.2438 H       1  UNL1        0.1442
     29 C         141.2447  143.2567  161.4364 C.3     1  UNL1        0.0215
     30 C         142.5678  143.9095  161.7077 C.3     1  UNL1        0.0723
     31 C         142.6384  143.8907  161.8466 C.3     1  UNL1        0.0893
     32 C         143.4849  142.8437  161.1853 C.3     1  UNL1        0.0386
     33 C         144.5320  142.1166  161.9758 C.3     1  UNL1        0.0594
     34 C         145.4126  141.6688  163.1046 C.3     1  UNL1        0.0174
     35 C         145.0396  142.4579  164.3245 C.3     1  UNL1        0.0174
     36 C         143.9285  143.3933  163.9497 C.3     1  UNL1        0.0594
     37 C         142.8389  144.2104  163.2983 C.3     1  UNL1        0.0386
     38 N         143.6148  143.1824  162.4981 N.3     1  UNL1       -0.2751
     39 C         140.2535  145.0908  163.0987 C.3     1  UNL1        0.0718
     40 C         140.3522  145.2557  161.6110 C.ar    1  UNL1        0.1207
     41 N         139.5946  145.8669  160.4698 N.ar    1  UNL1       -0.2309
     42 C         140.3655  145.6068  159.2095 C.ar    1  UNL1        0.0983
     43 C         140.1031  145.9732  157.7789 C.ar    1  UNL1        0.0206
     44 C         141.0748  145.5677  156.7106 C.ar    1  UNL1        0.0016
     45 C         142.3088  144.7957  157.0730 C.ar    1  UNL1        0.0016
     46 C         142.5712  144.4294  158.5036 C.ar    1  UNL1        0.0188
     47 C         141.5995  144.8349  159.5719 C.ar    1  UNL1        0.0785
     48 N         141.5913  144.6179  161.0561 N.ar    1  UNL1       -0.3167
@<TRIPOS>BOND
     1    39    40    1
     2    40    41   ar
     3    41    42   ar
     4    42    43   ar
     5    43    44   ar
     6    44    45   ar
     7    45    46   ar
     8    46    47   ar
     9    47    48   ar
    10    48    31    1
    11    31    32    1
    12    32    33    1
    13    33    34    1
    14    34    35    1
    15    35    36    1
    16    36    37    1
    17    36    38    1
    18    38    30    1
    19    30    29    1
    20    29     1    1
    21     1     9    1
    22     9    10   ar
    23    10    11   ar
    24    11    12   ar
    25    12    13   ar
    26    13    14    1
    27    13    15   ar
    28     1     2    1
    29     2     3    1
    30     3     4    1
    31     4     5   am
    32     5     6    2
    33     5    16    1
    34    16    17   ar
    35    17    18   ar
    36    18    23    1
    37    23    24    1
    38    23    25    2
    39    23    26    2
    40    18    19   ar
    41    19    20   ar
    42    20    21   ar
    43    21    22    1
    44     4     7    1
    45     7     8    1
    46    48    40   ar
    47    37    31    1
    48     8     1    1
    49    47    42   ar
    50    38    33    1
    51    15     9   ar
    52    21    16   ar
    53    24    27    1
    54    24    28    1
@<TRIPOS>MOLECULE
*****
 48 54 0 0 0
SMALL
GASTEIGER

@<TRIPOS>ATOM
      1 C         140.7623  140.8575  161.4818 C.3     1  UNL1        0.0236
      2 C         141.5738  140.3746  162.6473 C.3     1  UNL1        0.0257
      3 C         141.3862  140.9948  164.0001 C.3     1  UNL1        0.0940
      4 N         140.3873  142.0979  164.1875 N.am    1  UNL1       -0.2760
      5 C         140.1998  142.7182  165.5404 C.2     1  UNL1        0.2512
      6 O         139.2008  143.8213  165.7278 O.2     1  UNL1       -0.2698
      7 C         139.5758  142.5809  163.0220 C.3     1  UNL1        0.0940
      8 C         139.7633  141.9607  161.6693 C.3     1  UNL1        0.0257
      9 C         140.2340  140.9711  160.0824 C.ar    1  UNL1       -0.0204
     10 C         138.8576  140.4714  159.7576 C.ar    1  UNL1       -0.0041
     11 C         138.3293  140.5850  158.3582 C.ar    1  UNL1        0.0020
     12 C         139.1776  141.1982  157.2839 C.ar    1  UNL1        0.0296
     13 C         140.5541  141.6979  157.6088 C.ar    1  UNL1        0.1398
     14 F         141.4023  142.3112  156.5344 F       1  UNL1       -0.2042
     15 C         141.0823  141.5843  159.0081 C.ar    1  UNL1        0.0254
     16 C         141.0112  142.2352  166.7058 C.ar    1  UNL1        0.0823
     17 C         140.3499  141.4736  167.8161 C.ar    1  UNL1        0.0267
     18 C         141.1615  140.9907  168.9814 C.ar    1  UNL1        0.1220
     19 C         142.6344  141.2692  169.0366 C.ar    1  UNL1        0.0222
     20 C         143.2957  142.0308  167.9263 C.ar    1  UNL1        0.0312
     21 C         142.4841  142.5137  166.7609 C.ar    1  UNL1        0.1445
     22 F         143.1455  143.2753  165.6506 F       1  UNL1       -0.2040
     23 S         140.5002  140.2292  170.0917 S.O2    1  UNL1        0.0572
     24 N         139.8388  139.4676  171.2021 N.3     1  UNL1       -0.2035
     25 O         141.5848  140.6607  171.0337 O.2     1  UNL1       -0.1532
     26 O         139.4156  139.7976  169.1497 O.2     1  UNL1       -0.1532
     27 H         140.3843  139.5717  172.0577 H       1  UNL1        0.1442
     28 H         139.7841  138.4803  170.9517 H       1  UNL1        0.1442
     29 C         141.5778  139.7938  160.8085 C.3     1  UNL1        0.0215
     30 C         141.3853  138.3533  161.1801 C.3     1  UNL1        0.0723
     31 C         141.3838  138.3072  161.3301 C.3     1  UNL1        0.0893
     32 C         139.8866  138.3455  161.2441 C.3     1  UNL1        0.0386
     33 C         139.0572  137.9839  162.4404 C.3     1  UNL1        0.0594
     34 C         138.6545  137.5618  163.8224 C.3     1  UNL1        0.0174
     35 C         139.9043  137.3087  164.6123 C.3     1  UNL1        0.0174
     36 C         141.0794  137.5745  163.7187 C.3     1  UNL1        0.0594
     37 C         142.0512  137.9072  162.6124 C.3     1  UNL1        0.0386
     38 N         140.5558  137.9917  162.3763 N.3     1  UNL1       -0.2751
     39 C         144.0586  139.5264  161.5636 C.3     1  UNL1        0.0718
     40 C         143.5783  139.2898  160.1624 C.ar    1  UNL1        0.1207
     41 N         144.0319  139.4777  158.7450 N.ar    1  UNL1       -0.2309
     42 C         142.9472  138.9728  157.8404 C.ar    1  UNL1        0.0983
     43 C         142.8377  138.9036  156.3460 C.ar    1  UNL1        0.0206
     44 C         141.6043  138.3346  155.7099 C.ar    1  UNL1        0.0016
     45 C         140.4802  137.8346  156.5682 C.ar    1  UNL1        0.0016
     46 C         140.5897  137.9038  158.0625 C.ar    1  UNL1        0.0188
     47 C         141.8231  138.4728  158.6986 C.ar    1  UNL1        0.0785
     48 N         142.2132  138.6688  160.1337 N.ar    1  UNL1       -0.3167
@<TRIPOS>BOND
     1    39    40    1
     2    40    41   ar
     3    41    42   ar
     4    42    43   ar
     5    43    44   ar
     6    44    45   ar
     7    45    46   ar
     8    46    47   ar
     9    47    48   ar
    10    48    31    1
    11    31    32    1
    12    32    33    1
    13    33    34    1
    14    34    35    1
    15    35    36    1
    16    36    37    1
    17    36    38    1
    18    38    30    1
    19    30    29    1
    20    29     1    1
    21     1     9    1
    22     9    10   ar
    23    10    11   ar
    24    11    12   ar
    25    12    13   ar
    26    13    14    1
    27    13    15   ar
    28     1     2    1
    29     2     3    1
    30     3     4    1
    31     4     5   am
    32     5     6    2
    33     5    16    1
    34    16    17   ar
    35    17    18   ar
    36    18    23    1
    37    23    24    1
    38    23    25    2
    39    23    26    2
    40    18    19   ar
    41    19    20   ar
    42    20    21   ar
    43    21    22    1
    44     4     7    1
    45     7     8    1
    46    48    40   ar
    47    37    31    1
    48     8     1    1
    49    47    42   ar
    50    38    33    1
    51    15     9   ar
    52    21    16   ar
    53    24    27    1
    54    24    28    1
@<TRIPOS>MOLECULE
*****
 48 54 0 0 0
SMALL
GASTEIGER

@<TRIPOS>ATOM
      1 C         141.8349  142.5534  161.8387 C.3     1  UNL1        0.0236
      2 C         141.3694  141.5553  162.8571 C.3     1  UNL1        0.0257
      3 C         141.8989  141.6121  164.2594 C.3     1  UNL1        0.0940
      4 N         142.8939  142.6669  164.6433 N.am    1  UNL1       -0.2760
      5 C         143.4234  142.7236  166.0456 C.2     1  UNL1        0.2512
      6 O         144.4184  143.7784  166.4295 O.2     1  UNL1       -0.2698
      7 C         143.3594  143.6649  163.6248 C.3     1  UNL1        0.0940
      8 C         142.8300  143.6082  162.2226 C.3     1  UNL1        0.0257
      9 C         141.9714  143.2718  160.5289 C.ar    1  UNL1       -0.0204
     10 C         141.3134  144.6054  160.3330 C.ar    1  UNL1       -0.0041
     11 C         141.4499  145.3239  159.0232 C.ar    1  UNL1        0.0020
     12 C         142.2443  144.7085  157.9096 C.ar    1  UNL1        0.0296
     13 C         142.9023  143.3748  158.1056 C.ar    1  UNL1        0.1398
     14 F         143.6967  142.7596  156.9919 F       1  UNL1       -0.2042
     15 C         142.7658  142.6565  159.4153 C.ar    1  UNL1        0.0254
     16 C         142.9578  141.7256  167.0640 C.ar    1  UNL1        0.0823
     17 C         142.2667  142.1927  168.3106 C.ar    1  UNL1        0.0267
     18 C         141.8011  141.1945  169.3289 C.ar    1  UNL1        0.1220
     19 C         142.0267  139.7293  169.1006 C.ar    1  UNL1        0.0222
     20 C         142.7179  139.2621  167.8540 C.ar    1  UNL1        0.0312
     21 C         143.1835  140.2603  166.8357 C.ar    1  UNL1        0.1445
     22 F         143.8746  139.7932  165.5890 F       1  UNL1       -0.2040
     23 S         141.1100  141.6617  170.5755 S.O2    1  UNL1        0.0572
     24 N         140.4188  142.1288  171.8222 N.3     1  UNL1       -0.2035
     25 O         141.9788  142.8842  170.5991 O.2     1  UNL1       -0.1532
     26 O         140.2412  140.4391  170.5519 O.2     1  UNL1       -0.1532
     27 H         140.8192  143.0185  172.1199 H       1  UNL1        0.1442
     28 H         140.5437  141.4359  172.5602 H       1  UNL1        0.1442
     29 C         140.8873  141.7481  161.0000 C.3     1  UNL1        0.0215
     30 C         139.4082  141.8587  161.2236 C.3     1  UNL1        0.0723
     31 C         139.3493  141.8389  161.3678 C.3     1  UNL1        0.0893
     32 C         139.2838  143.3347  161.4600 C.3     1  UNL1        0.0386
     33 C         138.7602  143.9872  162.7051 C.3     1  UNL1        0.0594
     34 C         138.1921  144.1904  164.0784 C.3     1  UNL1        0.0174
     35 C         137.9654  142.8399  164.6907 C.3     1  UNL1        0.0174
     36 C         138.3933  141.8021  163.6958 C.3     1  UNL1        0.0594
     37 C         138.8911  140.9957  162.5205 C.3     1  UNL1        0.0386
     38 N         138.8846  142.5111  162.4686 N.3     1  UNL1       -0.2751
     39 C         138.6937  142.8212  158.6657 C.3     1  UNL1        0.0718
     40 C         139.5902  141.6195  158.7147 C.ar    1  UNL1        0.1207
     41 N         140.3138  140.6871  157.7889 N.ar    1  UNL1       -0.2309
     42 C         141.0437  139.6779  158.6248 C.ar    1  UNL1        0.0983
     43 C         141.9212  138.5177  158.2588 C.ar    1  UNL1        0.0206
     44 C         142.5262  137.6662  159.3353 C.ar    1  UNL1        0.0016
     45 C         142.2538  137.9748  160.7777 C.ar    1  UNL1        0.0016
     46 C         141.3762  139.1350  161.1436 C.ar    1  UNL1        0.0188
     47 C         140.7712  139.9865  160.0672 C.ar    1  UNL1        0.0785
     48 N         139.8729  141.1865  160.1227 N.ar    1  UNL1       -0.3167
@<TRIPOS>BOND
     1    39    40    1
     2    40    41   ar
     3    41    42   ar
     4    42    43   ar
     5    43    44   ar
     6    44    45   ar
     7    45    46   ar
     8    46    47   ar
     9    47    48   ar
    10    48    31    1
    11    31    32    1
    12    32    33    1
    13    33    34    1
    14    34    35    1
    15    35    36    1
    16    36    37    1
    17    36    38    1
    18    38    30    1
    19    30    29    1
    20    29     1    1
    21     1     9    1
    22     9    10   ar
    23    10    11   ar
    24    11    12   ar
    25    12    13   ar
    26    13    14    1
    27    13    15   ar
    28     1     2    1
    29     2     3    1
    30     3     4    1
    31     4     5   am
    32     5     6    2
    33     5    16    1
    34    16    17   ar
    35    17    18   ar
    36    18    23    1
    37    23    24    1
    38    23    25    2
    39    23    26    2
    40    18    19   ar
    41    19    20   ar
    42    20    21   ar
    43    21    22    1
    44     4     7    1
    45     7     8    1
    46    48    40   ar
    47    37    31    1
    48     8     1    1
    49    47    42   ar
    50    38    33    1
    51    15     9   ar
    52    21    16   ar
    53    24    27    1
    54    24    28    1
