@<TRIPOS>MOLECULE
*****
 30 34 0 0 0
SMALL
GASTEIGER

@<TRIPOS>ATOM
      1 N         138.5236  139.4608  164.2276 N.3     1  UNL1       -0.2725
      2 C         139.0455  140.8406  164.4987 C.3     1  UNL1        0.0738
      3 C         139.5012  141.2124  165.8787 C.3     1  UNL1        0.0376
      4 C         139.4350  140.2043  166.9874 C.3     1  UNL1        0.0842
      5 C         138.9130  138.8244  166.7163 C.3     1  UNL1        0.0376
      6 C         138.4574  138.4527  165.3364 C.3     1  UNL1        0.0738
      7 N         139.8906  140.5761  168.3673 N.am    1  UNL1       -0.2408
      8 C         139.1579  140.2905  169.6446 C.2     1  UNL1        0.3310
      9 O         137.8409  139.5829  169.7663 O.2     1  UNL1       -0.2501
     10 N         139.9734  140.8366  170.7789 N.am    1  UNL1       -0.1646
     11 C         141.2103  141.4598  170.2026 C.2     1  UNL1        0.0738
     12 C         142.3764  142.1530  170.8426 C.3     1  UNL1        0.0915
     13 C         143.4914  142.6853  169.9920 C.2     1  UNL1        0.0787
     14 N         143.4402  142.5243  168.5015 N.2     1  UNL1       -0.2452
     15 C         142.2740  141.8310  167.8616 C.2     1  UNL1        0.1144
     16 C         141.1590  141.2988  168.7122 C.2     1  UNL1        0.0860
     17 C         138.0679  139.0890  162.8478 C.3     1  UNL1        0.0739
     18 C         139.0723  138.9178  161.7469 C.3     1  UNL1        0.0392
     19 C         140.2067  137.9501  161.9104 C.3     1  UNL1        0.0998
     20 O         141.3650  138.5209  159.2026 O.2     1  UNL1       -0.2705
     21 C         142.2025  138.7126  160.4322 C.2     1  UNL1        0.2739
     22 C         143.6192  139.1897  160.3079 C.3     1  UNL1        0.2900
     23 O         144.4567  139.3813  161.5374 O.3     1  UNL1       -0.4643
     24 C         143.8775  139.0959  162.8914 C.ar    1  UNL1        0.1528
     25 C         144.7150  139.2875  164.1209 C.ar    1  UNL1        0.0382
     26 C         144.1359  139.0021  165.4748 C.ar    1  UNL1        0.0032
     27 C         142.7192  138.5250  165.5992 C.ar    1  UNL1        0.0015
     28 C         141.8817  138.3334  164.3696 C.ar    1  UNL1        0.0180
     29 C         142.4609  138.6188  163.0157 C.ar    1  UNL1        0.0881
     30 N         141.6234  138.4271  161.7861 N.am    1  UNL1       -0.2529
@<TRIPOS>BOND
     1    20    21    2
     2    21    22    1
     3    22    23    1
     4    23    24    1
     5    24    25   ar
     6    25    26   ar
     7    26    27   ar
     8    27    28   ar
     9    28    29   ar
    10    29    30    1
    11    30    19    1
    12    19    18    1
    13    18    17    1
    14    17     1    1
    15     1     2    1
    16     2     3    1
    17     3     4    1
    18     4     7    1
    19     7     8   am
    20     8     9    2
    21     8    10    1
    22    10    11    2
    23    11    12    1
    24    12    13    1
    25    13    14    2
    26    14    15    1
    27    15    16    2
    28     4     5    1
    29     5     6    1
    30    30    21   am
    31     6     1    1
    32    29    24   ar
    33    16     7    1
    34    16    11    1
@<TRIPOS>MOLECULE
*****
 30 34 0 0 0
SMALL
GASTEIGER

@<TRIPOS>ATOM
      1 N         139.2245  138.4795  164.7342 N.3     1  UNL1       -0.2725
      2 C         138.1527  138.5619  165.7803 C.3     1  UNL1        0.0738
      3 C         138.4403  139.2169  167.0988 C.3     1  UNL1        0.0376
      4 C         139.7997  139.7895  167.3711 C.3     1  UNL1        0.0842
      5 C         140.8715  139.7071  166.3250 C.3     1  UNL1        0.0376
      6 C         140.5839  139.0522  165.0065 C.3     1  UNL1        0.0738
      7 N         140.0872  140.4445  168.6896 N.am    1  UNL1       -0.2408
      8 C         139.2212  140.3817  169.9127 C.2     1  UNL1        0.3310
      9 O         137.9156  139.6530  170.0322 O.2     1  UNL1       -0.2501
     10 N         139.8901  141.1756  170.9954 N.am    1  UNL1       -0.1646
     11 C         141.1695  141.7291  170.4414 C.2     1  UNL1        0.0738
     12 C         142.2392  142.5862  171.0506 C.3     1  UNL1        0.0915
     13 C         143.4309  142.9914  170.2346 C.2     1  UNL1        0.0787
     14 N         143.5527  142.5394  168.8094 N.2     1  UNL1       -0.2452
     15 C         142.4829  141.6824  168.2003 C.2     1  UNL1        0.1144
     16 C         141.2913  141.2772  169.0163 C.2     1  UNL1        0.0860
     17 C         138.9370  137.8246  163.4158 C.3     1  UNL1        0.0739
     18 C         138.6575  138.6656  162.2056 C.3     1  UNL1        0.0392
     19 C         137.7523  139.8569  162.3131 C.3     1  UNL1        0.0998
     20 O         137.9990  140.2202  159.3453 O.2     1  UNL1       -0.2705
     21 C         138.3072  141.3614  160.2689 C.2     1  UNL1        0.2739
     22 C         138.7388  142.6842  159.7085 C.3     1  UNL1        0.2900
     23 O         139.0471  143.8253  160.6320 O.3     1  UNL1       -0.4643
     24 C         138.9237  143.6436  162.1159 C.ar    1  UNL1        0.1528
     25 C         139.2320  144.7847  163.0393 C.ar    1  UNL1        0.0382
     26 C         139.1086  144.6031  164.5231 C.ar    1  UNL1        0.0032
     27 C         138.6770  143.2803  165.0835 C.ar    1  UNL1        0.0015
     28 C         138.3688  142.1392  164.1601 C.ar    1  UNL1        0.0180
     29 C         138.4921  142.3209  162.6762 C.ar    1  UNL1        0.0881
     30 N         138.1839  141.1797  161.7527 N.am    1  UNL1       -0.2529
@<TRIPOS>BOND
     1    20    21    2
     2    21    22    1
     3    22    23    1
     4    23    24    1
     5    24    25   ar
     6    25    26   ar
     7    26    27   ar
     8    27    28   ar
     9    28    29   ar
    10    29    30    1
    11    30    19    1
    12    19    18    1
    13    18    17    1
    14    17     1    1
    15     1     2    1
    16     2     3    1
    17     3     4    1
    18     4     7    1
    19     7     8   am
    20     8     9    2
    21     8    10    1
    22    10    11    2
    23    11    12    1
    24    12    13    1
    25    13    14    2
    26    14    15    1
    27    15    16    2
    28     4     5    1
    29     5     6    1
    30    30    21   am
    31     6     1    1
    32    29    24   ar
    33    16     7    1
    34    16    11    1
@<TRIPOS>MOLECULE
*****
 30 34 0 0 0
SMALL
GASTEIGER

@<TRIPOS>ATOM
      1 N         141.5445  139.0023  163.3571 N.3     1  UNL1       -0.2725
      2 C         140.6097  140.1490  163.6044 C.3     1  UNL1        0.0738
      3 C         140.3297  140.5993  165.0076 C.3     1  UNL1        0.0376
      4 C         140.9845  139.9028  166.1635 C.3     1  UNL1        0.0842
      5 C         141.9193  138.7560  165.9162 C.3     1  UNL1        0.0376
      6 C         142.1992  138.3058  164.5130 C.3     1  UNL1        0.0738
      7 N         140.7045  140.3530  167.5667 N.am    1  UNL1       -0.2408
      8 C         139.4955  139.9999  168.3812 C.2     1  UNL1        0.3310
      9 O         138.3541  139.1346  167.9356 O.2     1  UNL1       -0.2501
     10 N         139.6281  140.6640  169.7196 N.am    1  UNL1       -0.1646
     11 C         140.9192  141.4276  169.7323 C.2     1  UNL1        0.0738
     12 C         141.5749  142.2730  170.7835 C.3     1  UNL1        0.0915
     13 C         142.8960  142.9263  170.5042 C.2     1  UNL1        0.0787
     14 N         143.5613  142.7341  169.1735 N.2     1  UNL1       -0.2452
     15 C         142.9055  141.8886  168.1223 C.2     1  UNL1        0.1144
     16 C         141.5844  141.2353  168.4017 C.2     1  UNL1        0.0860
     17 C         141.8244  138.5521  161.9540 C.3     1  UNL1        0.0739
     18 C         143.2011  138.0934  161.5741 C.3     1  UNL1        0.0392
     19 C         144.3496  139.0576  161.6106 C.3     1  UNL1        0.0998
     20 O         143.9285  139.7926  158.7326 O.2     1  UNL1       -0.2705
     21 C         143.9267  140.8594  159.7872 C.2     1  UNL1        0.2739
     22 C         143.7143  142.2936  159.4027 C.3     1  UNL1        0.2900
     23 O         143.7125  143.3604  160.4572 O.3     1  UNL1       -0.4643
     24 C         143.9231  142.9929  161.8962 C.ar    1  UNL1        0.1528
     25 C         143.9213  144.0597  162.9507 C.ar    1  UNL1        0.0382
     26 C         144.1319  143.6922  164.3896 C.ar    1  UNL1        0.0032
     27 C         144.3443  142.2580  164.7741 C.ar    1  UNL1        0.0015
     28 C         144.3461  141.1912  163.7196 C.ar    1  UNL1        0.0180
     29 C         144.1355  141.5587  162.2807 C.ar    1  UNL1        0.0881
     30 N         144.1373  140.4919  161.2261 N.am    1  UNL1       -0.2529
@<TRIPOS>BOND
     1    20    21    2
     2    21    22    1
     3    22    23    1
     4    23    24    1
     5    24    25   ar
     6    25    26   ar
     7    26    27   ar
     8    27    28   ar
     9    28    29   ar
    10    29    30    1
    11    30    19    1
    12    19    18    1
    13    18    17    1
    14    17     1    1
    15     1     2    1
    16     2     3    1
    17     3     4    1
    18     4     7    1
    19     7     8   am
    20     8     9    2
    21     8    10    1
    22    10    11    2
    23    11    12    1
    24    12    13    1
    25    13    14    2
    26    14    15    1
    27    15    16    2
    28     4     5    1
    29     5     6    1
    30    30    21   am
    31     6     1    1
    32    29    24   ar
    33    16     7    1
    34    16    11    1
@<TRIPOS>MOLECULE
*****
 30 34 0 0 0
SMALL
GASTEIGER

@<TRIPOS>ATOM
      1 N         142.6680  141.7133  163.0775 N.3     1  UNL1       -0.2725
      2 C         141.4943  140.8932  163.5243 C.3     1  UNL1        0.0738
      3 C         141.3165  140.5676  164.9778 C.3     1  UNL1        0.0376
      4 C         142.3126  141.0622  165.9844 C.3     1  UNL1        0.0842
      5 C         143.4864  141.8824  165.5375 C.3     1  UNL1        0.0376
      6 C         143.6641  142.2079  164.0841 C.3     1  UNL1        0.0738
      7 N         142.1349  140.7367  167.4378 N.am    1  UNL1       -0.2408
      8 C         142.6654  139.5224  168.1406 C.2     1  UNL1        0.3310
      9 O         143.4668  138.4204  167.5134 O.2     1  UNL1       -0.2501
     10 N         142.2539  139.6035  169.5807 N.am    1  UNL1       -0.1646
     11 C         141.4690  140.8680  169.7680 C.2     1  UNL1        0.0738
     12 C         140.8118  141.4721  170.9734 C.3     1  UNL1        0.0915
     13 C         140.0809  142.7767  170.8545 C.2     1  UNL1        0.0787
     14 N         140.0074  143.4771  169.5299 N.2     1  UNL1       -0.2452
     15 C         140.6646  142.8729  168.3246 C.2     1  UNL1        0.1144
     16 C         141.3954  141.5683  168.4436 C.2     1  UNL1        0.0860
     17 C         142.8458  142.0388  161.6241 C.3     1  UNL1        0.0739
     18 C         143.0892  143.4560  161.1973 C.3     1  UNL1        0.0392
     19 C         141.9293  144.3594  160.8996 C.3     1  UNL1        0.0998
     20 O         140.6945  143.0642  158.4918 O.2     1  UNL1       -0.2705
     21 C         139.9107  143.1810  159.7654 C.2     1  UNL1        0.2739
     22 C         138.5095  142.6502  159.8351 C.3     1  UNL1        0.2900
     23 O         137.7257  142.7670  161.1086 O.3     1  UNL1       -0.4643
     24 C         138.3431  143.4146  162.3126 C.ar    1  UNL1        0.1528
     25 C         137.5593  143.5313  163.5862 C.ar    1  UNL1        0.0382
     26 C         138.1767  144.1789  164.7901 C.ar    1  UNL1        0.0032
     27 C         139.5779  144.7097  164.7204 C.ar    1  UNL1        0.0015
     28 C         140.3617  144.5930  163.4468 C.ar    1  UNL1        0.0180
     29 C         139.7443  143.9454  162.2429 C.ar    1  UNL1        0.0881
     30 N         140.5281  143.8286  160.9693 N.am    1  UNL1       -0.2529
@<TRIPOS>BOND
     1    20    21    2
     2    21    22    1
     3    22    23    1
     4    23    24    1
     5    24    25   ar
     6    25    26   ar
     7    26    27   ar
     8    27    28   ar
     9    28    29   ar
    10    29    30    1
    11    30    19    1
    12    19    18    1
    13    18    17    1
    14    17     1    1
    15     1     2    1
    16     2     3    1
    17     3     4    1
    18     4     7    1
    19     7     8   am
    20     8     9    2
    21     8    10    1
    22    10    11    2
    23    11    12    1
    24    12    13    1
    25    13    14    2
    26    14    15    1
    27    15    16    2
    28     4     5    1
    29     5     6    1
    30    30    21   am
    31     6     1    1
    32    29    24   ar
    33    16     7    1
    34    16    11    1
@<TRIPOS>MOLECULE
*****
 30 34 0 0 0
SMALL
GASTEIGER

@<TRIPOS>ATOM
      1 N         141.2458  140.2352  162.6007 N.3     1  UNL1       -0.2725
      2 C         140.1152  140.0411  163.5671 C.3     1  UNL1        0.0738
      3 C         140.3711  140.1063  165.0437 C.3     1  UNL1        0.0376
      4 C         141.7577  140.3657  165.5538 C.3     1  UNL1        0.0842
      5 C         142.8883  140.5598  164.5873 C.3     1  UNL1        0.0376
      6 C         142.6324  140.4946  163.1108 C.3     1  UNL1        0.0738
      7 N         142.0136  140.4309  167.0304 N.am    1  UNL1       -0.2408
      8 C         142.8619  139.4795  167.8210 C.2     1  UNL1        0.3310
      9 O         143.6030  138.2957  167.2740 O.2     1  UNL1       -0.2501
     10 N         142.8388  139.9196  169.2548 N.am    1  UNL1       -0.1646
     11 C         141.9762  141.1431  169.3503 C.2     1  UNL1        0.0738
     12 C         141.5894  142.0102  170.5115 C.3     1  UNL1        0.0915
     13 C         140.6925  143.1935  170.2979 C.2     1  UNL1        0.0787
     14 N         140.1825  143.5095  168.9230 N.2     1  UNL1       -0.2452
     15 C         140.5694  142.6423  167.7619 C.2     1  UNL1        0.1144
     16 C         141.4663  141.4591  167.9755 C.2     1  UNL1        0.0860
     17 C         140.9899  140.1700  161.1241 C.3     1  UNL1        0.0739
     18 C         141.4619  141.2791  160.2314 C.3     1  UNL1        0.0392
     19 C         140.9033  142.6618  160.3937 C.3     1  UNL1        0.0998
     20 O         143.6505  143.7427  160.9275 O.2     1  UNL1       -0.2705
     21 C         142.5469  143.9776  161.9159 C.2     1  UNL1        0.2739
     22 C         142.8169  144.7530  163.1713 C.3     1  UNL1        0.2900
     23 O         141.7134  144.9879  164.1597 O.3     1  UNL1       -0.4643
     24 C         140.3398  144.4474  163.8929 C.ar    1  UNL1        0.1528
     25 C         139.2363  144.6824  164.8813 C.ar    1  UNL1        0.0382
     26 C         137.8628  144.1419  164.6144 C.ar    1  UNL1        0.0032
     27 C         137.5927  143.3666  163.3591 C.ar    1  UNL1        0.0015
     28 C         138.6962  143.1316  162.3706 C.ar    1  UNL1        0.0180
     29 C         140.0698  143.6721  162.6375 C.ar    1  UNL1        0.0881
     30 N         141.1733  143.4371  161.6490 N.am    1  UNL1       -0.2529
@<TRIPOS>BOND
     1    20    21    2
     2    21    22    1
     3    22    23    1
     4    23    24    1
     5    24    25   ar
     6    25    26   ar
     7    26    27   ar
     8    27    28   ar
     9    28    29   ar
    10    29    30    1
    11    30    19    1
    12    19    18    1
    13    18    17    1
    14    17     1    1
    15     1     2    1
    16     2     3    1
    17     3     4    1
    18     4     7    1
    19     7     8   am
    20     8     9    2
    21     8    10    1
    22    10    11    2
    23    11    12    1
    24    12    13    1
    25    13    14    2
    26    14    15    1
    27    15    16    2
    28     4     5    1
    29     5     6    1
    30    30    21   am
    31     6     1    1
    32    29    24   ar
    33    16     7    1
    34    16    11    1
@<TRIPOS>MOLECULE
*****
 30 34 0 0 0
SMALL
GASTEIGER

@<TRIPOS>ATOM
      1 N         139.2765  138.5504  164.4977 N.3     1  UNL1       -0.2725
      2 C         140.6738  138.5677  165.0427 C.3     1  UNL1        0.0738
      3 C         140.9487  139.1834  166.3827 C.3     1  UNL1        0.0376
      4 C         139.8262  139.7816  167.1776 C.3     1  UNL1        0.0842
      5 C         138.4288  139.7643  166.6326 C.3     1  UNL1        0.0376
      6 C         138.1539  139.1487  165.2927 C.3     1  UNL1        0.0738
      7 N         140.1010  140.3972  168.5176 N.am    1  UNL1       -0.2408
      8 C         139.2316  140.2845  169.7347 C.2     1  UNL1        0.3310
      9 O         137.9347  139.5363  169.8255 O.2     1  UNL1       -0.2501
     10 N         139.8868  141.0512  170.8450 N.am    1  UNL1       -0.1646
     11 C         141.1612  141.6379  170.3141 C.2     1  UNL1        0.0738
     12 C         142.2180  142.4879  170.9547 C.3     1  UNL1        0.0915
     13 C         143.4074  142.9338  170.1568 C.2     1  UNL1        0.0787
     14 N         143.5399  142.5296  168.7183 N.2     1  UNL1       -0.2452
     15 C         142.4829  141.6796  168.0778 C.2     1  UNL1        0.1144
     16 C         141.2935  141.2337  168.8757 C.2     1  UNL1        0.0860
     17 C         139.0016  137.9348  163.1578 C.3     1  UNL1        0.0739
     18 C         139.7109  138.4448  161.9384 C.3     1  UNL1        0.0392
     19 C         139.6906  139.9098  161.6167 C.3     1  UNL1        0.0998
     20 O         142.6762  139.6709  161.4449 O.2     1  UNL1       -0.2705
     21 C         142.0569  140.7388  162.2972 C.2     1  UNL1        0.2739
     22 C         142.9305  141.6871  163.0636 C.3     1  UNL1        0.2900
     23 O         142.3114  142.7549  163.9159 O.3     1  UNL1       -0.4643
     24 C         140.8186  142.8744  164.0018 C.ar    1  UNL1        0.1528
     25 C         140.1994  143.9421  164.8541 C.ar    1  UNL1        0.0382
     26 C         138.7067  144.0615  164.9400 C.ar    1  UNL1        0.0032
     27 C         137.8331  143.1131  164.1736 C.ar    1  UNL1        0.0015
     28 C         138.4522  142.0454  163.3213 C.ar    1  UNL1        0.0180
     29 C         139.9450  141.9260  163.2354 C.ar    1  UNL1        0.0881
     30 N         140.5642  140.8581  162.3831 N.am    1  UNL1       -0.2529
@<TRIPOS>BOND
     1    20    21    2
     2    21    22    1
     3    22    23    1
     4    23    24    1
     5    24    25   ar
     6    25    26   ar
     7    26    27   ar
     8    27    28   ar
     9    28    29   ar
    10    29    30    1
    11    30    19    1
    12    19    18    1
    13    18    17    1
    14    17     1    1
    15     1     2    1
    16     2     3    1
    17     3     4    1
    18     4     7    1
    19     7     8   am
    20     8     9    2
    21     8    10    1
    22    10    11    2
    23    11    12    1
    24    12    13    1
    25    13    14    2
    26    14    15    1
    27    15    16    2
    28     4     5    1
    29     5     6    1
    30    30    21   am
    31     6     1    1
    32    29    24   ar
    33    16     7    1
    34    16    11    1
@<TRIPOS>MOLECULE
*****
 30 34 0 0 0
SMALL
GASTEIGER

@<TRIPOS>ATOM
      1 N         139.6370  141.7400  162.8745 N.3     1  UNL1       -0.2725
      2 C         140.4226  140.5142  163.2354 C.3     1  UNL1        0.0738
      3 C         140.6871  140.1900  164.6759 C.3     1  UNL1        0.0376
      4 C         140.1659  141.0916  165.7555 C.3     1  UNL1        0.0842
      5 C         139.3803  142.3175  165.3945 C.3     1  UNL1        0.0376
      6 C         139.1159  142.6416  163.9540 C.3     1  UNL1        0.0738
      7 N         140.4303  140.7675  167.1959 N.am    1  UNL1       -0.2408
      8 C         139.6055  139.8618  168.0616 C.2     1  UNL1        0.3310
      9 O         138.3716  139.1212  167.6388 O.2     1  UNL1       -0.2501
     10 N         140.2314  139.8267  169.4243 N.am    1  UNL1       -0.1646
     11 C         141.4430  140.7107  169.4009 C.2     1  UNL1        0.0738
     12 C         142.4501  141.0613  170.4557 C.3     1  UNL1        0.0915
     13 C         143.5803  141.9935  170.1333 C.2     1  UNL1        0.0787
     14 N         143.7032  142.5749  168.7560 N.2     1  UNL1       -0.2452
     15 C         142.6960  142.2243  167.7012 C.2     1  UNL1        0.1144
     16 C         141.5659  141.2922  168.0237 C.2     1  UNL1        0.0860
     17 C         139.3726  142.0641  161.4340 C.3     1  UNL1        0.0739
     18 C         140.4857  141.9876  160.4315 C.3     1  UNL1        0.0392
     19 C         141.5670  143.0273  160.4305 C.3     1  UNL1        0.0998
     20 O         140.5163  145.5590  161.6498 O.2     1  UNL1       -0.2705
     21 C         141.6051  144.7905  162.3383 C.2     1  UNL1        0.2739
     22 C         142.1685  145.2878  163.6364 C.3     1  UNL1        0.2900
     23 O         143.2573  144.5194  164.3249 O.3     1  UNL1       -0.4643
     24 C         143.7826  143.2535  163.7153 C.ar    1  UNL1        0.1528
     25 C         144.8714  142.4850  164.4038 C.ar    1  UNL1        0.0382
     26 C         145.3967  141.2192  163.7941 C.ar    1  UNL1        0.0032
     27 C         144.8333  140.7219  162.4960 C.ar    1  UNL1        0.0015
     28 C         143.7446  141.4903  161.8075 C.ar    1  UNL1        0.0180
     29 C         143.2192  142.7561  162.4171 C.ar    1  UNL1        0.0881
     30 N         142.1304  143.5247  161.7286 N.am    1  UNL1       -0.2529
@<TRIPOS>BOND
     1    20    21    2
     2    21    22    1
     3    22    23    1
     4    23    24    1
     5    24    25   ar
     6    25    26   ar
     7    26    27   ar
     8    27    28   ar
     9    28    29   ar
    10    29    30    1
    11    30    19    1
    12    19    18    1
    13    18    17    1
    14    17     1    1
    15     1     2    1
    16     2     3    1
    17     3     4    1
    18     4     7    1
    19     7     8   am
    20     8     9    2
    21     8    10    1
    22    10    11    2
    23    11    12    1
    24    12    13    1
    25    13    14    2
    26    14    15    1
    27    15    16    2
    28     4     5    1
    29     5     6    1
    30    30    21   am
    31     6     1    1
    32    29    24   ar
    33    16     7    1
    34    16    11    1
@<TRIPOS>MOLECULE
*****
 30 34 0 0 0
SMALL
GASTEIGER

@<TRIPOS>ATOM
      1 N         139.6047  139.0931  163.7307 N.3     1  UNL1       -0.2725
      2 C         138.7962  139.2899  164.9787 C.3     1  UNL1        0.0738
      3 C         139.4683  139.7257  166.2469 C.3     1  UNL1        0.0376
      4 C         140.9491  139.9646  166.2671 C.3     1  UNL1        0.0842
      5 C         141.7576  139.7676  165.0191 C.3     1  UNL1        0.0376
      6 C         141.0854  139.3319  163.7509 C.3     1  UNL1        0.0738
      7 N         141.6212  140.4003  167.5353 N.am    1  UNL1       -0.2408
      8 C         142.7397  139.6833  168.2316 C.2     1  UNL1        0.3310
      9 O         143.3824  138.4047  167.7820 O.2     1  UNL1       -0.2501
     10 N         143.1027  140.4694  169.4564 N.am    1  UNL1       -0.1646
     11 C         142.2086  141.6723  169.5171 C.2     1  UNL1        0.0738
     12 C         142.1099  142.8009  170.5002 C.3     1  UNL1        0.0915
     13 C         141.0955  143.8869  170.2959 C.2     1  UNL1        0.0787
     14 N         140.1798  143.8442  169.1085 N.2     1  UNL1       -0.2452
     15 C         140.2786  142.7155  168.1254 C.2     1  UNL1        0.1144
     16 C         141.2930  141.6295  168.3298 C.2     1  UNL1        0.0860
     17 C         138.9325  138.6573  162.4626 C.3     1  UNL1        0.0739
     18 C         137.7244  139.3928  161.9631 C.3     1  UNL1        0.0392
     19 C         137.8735  140.7588  161.3616 C.3     1  UNL1        0.0998
     20 O         140.3591  140.4242  159.7154 O.2     1  UNL1       -0.2705
     21 C         140.3327  141.4155  160.8410 C.2     1  UNL1        0.2739
     22 C         141.5491  142.2395  161.1434 C.3     1  UNL1        0.2900
     23 O         141.5227  143.2307  162.2688 O.3     1  UNL1       -0.4643
     24 C         140.2798  143.3981  163.0919 C.ar    1  UNL1        0.1528
     25 C         140.2534  144.3893  164.2174 C.ar    1  UNL1        0.0382
     26 C         139.0106  144.5566  165.0404 C.ar    1  UNL1        0.0032
     27 C         137.7942  143.7326  164.7380 C.ar    1  UNL1        0.0015
     28 C         137.8206  142.7414  163.6125 C.ar    1  UNL1        0.0180
     29 C         139.0634  142.5741  162.7895 C.ar    1  UNL1        0.0881
     30 N         139.0899  141.5828  161.6640 N.am    1  UNL1       -0.2529
@<TRIPOS>BOND
     1    20    21    2
     2    21    22    1
     3    22    23    1
     4    23    24    1
     5    24    25   ar
     6    25    26   ar
     7    26    27   ar
     8    27    28   ar
     9    28    29   ar
    10    29    30    1
    11    30    19    1
    12    19    18    1
    13    18    17    1
    14    17     1    1
    15     1     2    1
    16     2     3    1
    17     3     4    1
    18     4     7    1
    19     7     8   am
    20     8     9    2
    21     8    10    1
    22    10    11    2
    23    11    12    1
    24    12    13    1
    25    13    14    2
    26    14    15    1
    27    15    16    2
    28     4     5    1
    29     5     6    1
    30    30    21   am
    31     6     1    1
    32    29    24   ar
    33    16     7    1
    34    16    11    1
@<TRIPOS>MOLECULE
*****
 30 34 0 0 0
SMALL
GASTEIGER

@<TRIPOS>ATOM
      1 N         142.0657  139.8944  162.7618 N.3     1  UNL1       -0.2725
      2 C         140.9280  140.8051  163.1170 C.3     1  UNL1        0.0738
      3 C         140.3665  140.7965  164.5080 C.3     1  UNL1        0.0376
      4 C         140.9428  139.8772  165.5437 C.3     1  UNL1        0.0842
      5 C         142.0806  138.9665  165.1885 C.3     1  UNL1        0.0376
      6 C         142.6420  138.9751  163.7975 C.3     1  UNL1        0.0738
      7 N         140.3814  139.8686  166.9346 N.am    1  UNL1       -0.2408
      8 C         138.9785  139.5001  167.3168 C.2     1  UNL1        0.3310
      9 O         137.8908  139.0754  166.3753 O.2     1  UNL1       -0.2501
     10 N         138.8543  139.6307  168.8060 N.am    1  UNL1       -0.1646
     11 C         140.1805  140.0800  169.3441 C.2     1  UNL1        0.0738
     12 C         140.6505  140.3742  170.7378 C.3     1  UNL1        0.0915
     13 C         142.0644  140.8154  170.9750 C.2     1  UNL1        0.0787
     14 N         143.0082  140.9625  169.8183 N.2     1  UNL1       -0.2452
     15 C         142.5381  140.6683  168.4246 C.2     1  UNL1        0.1144
     16 C         141.1242  140.2270  168.1875 C.2     1  UNL1        0.0860
     17 C         142.6271  139.9031  161.3709 C.3     1  UNL1        0.0739
     18 C         144.0593  140.2863  161.1425 C.3     1  UNL1        0.0392
     19 C         144.4689  141.7280  161.2042 C.3     1  UNL1        0.0998
     20 O         146.0469  141.3824  163.7322 O.2     1  UNL1       -0.2705
     21 C         144.9262  142.3780  163.6777 C.2     1  UNL1        0.2739
     22 C         144.5945  143.2008  164.8872 C.3     1  UNL1        0.2900
     23 O         143.4739  144.1964  164.8328 O.3     1  UNL1       -0.4643
     24 C         142.6849  144.3692  163.5688 C.ar    1  UNL1        0.1528
     25 C         141.5643  145.3648  163.5144 C.ar    1  UNL1        0.0382
     26 C         140.7753  145.5376  162.2504 C.ar    1  UNL1        0.0032
     27 C         141.1070  144.7148  161.0409 C.ar    1  UNL1        0.0015
     28 C         142.2276  143.7192  161.0953 C.ar    1  UNL1        0.0180
     29 C         143.0166  143.5464  162.3593 C.ar    1  UNL1        0.0881
     30 N         144.1372  142.5508  162.4137 N.am    1  UNL1       -0.2529
@<TRIPOS>BOND
     1    20    21    2
     2    21    22    1
     3    22    23    1
     4    23    24    1
     5    24    25   ar
     6    25    26   ar
     7    26    27   ar
     8    27    28   ar
     9    28    29   ar
    10    29    30    1
    11    30    19    1
    12    19    18    1
    13    18    17    1
    14    17     1    1
    15     1     2    1
    16     2     3    1
    17     3     4    1
    18     4     7    1
    19     7     8   am
    20     8     9    2
    21     8    10    1
    22    10    11    2
    23    11    12    1
    24    12    13    1
    25    13    14    2
    26    14    15    1
    27    15    16    2
    28     4     5    1
    29     5     6    1
    30    30    21   am
    31     6     1    1
    32    29    24   ar
    33    16     7    1
    34    16    11    1
