@<TRIPOS>MOLECULE
*****
 28 30 0 0 0
SMALL
GASTEIGER

@<TRIPOS>ATOM
      1 C         139.7287  141.2867  166.5925 C.2     1  UNL1       -0.0077
      2 C         140.0963  141.7239  167.9794 C.2     1  UNL1       -0.0414
      3 C         139.9974  140.7567  169.1217 C.3     1  UNL1        0.0391
      4 C         140.3650  141.1939  170.5087 C.3     1  UNL1        0.0730
      5 N         140.8315  142.5983  170.7534 N.3     1  UNL1       -0.2969
      6 C         140.9305  143.5656  169.6112 C.3     1  UNL1        0.0730
      7 C         140.5629  143.1284  168.2242 C.3     1  UNL1        0.0391
      8 H         141.7627  142.5319  171.1645 H       1  UNL1        0.1233
      9 C         139.2622  139.8823  166.3477 C.ar    1  UNL1        0.0016
     10 C         139.9638  139.0243  165.3369 C.ar    1  UNL1        0.0001
     11 C         139.4972  137.6199  165.0922 C.ar    1  UNL1        0.0023
     12 C         138.3291  137.0734  165.8582 C.ar    1  UNL1        0.0296
     13 C         137.6275  137.9314  166.8690 C.ar    1  UNL1        0.1401
     14 F         136.4594  137.3849  167.6350 F       1  UNL1       -0.2042
     15 C         138.0940  139.3358  167.1138 C.ar    1  UNL1        0.0296
     16 C         140.0256  144.1884  163.1658 C.ar    1  UNL1        0.0536
     17 C         138.6879  143.8695  163.7647 C.ar    1  UNL1        0.0045
     18 C         138.5890  142.9022  164.9070 C.ar    1  UNL1        0.0001
     19 C         139.8277  142.2540  165.4502 C.ar    1  UNL1       -0.0006
     20 C         141.1654  142.5729  164.8513 C.ar    1  UNL1        0.0001
     21 C         141.2644  143.5401  163.7091 C.ar    1  UNL1        0.0045
     22 N         140.1604  144.6485  160.6124 N.am    1  UNL1       -0.2761
     23 C         140.1246  145.1556  162.0236 C.2     1  UNL1        0.2490
     24 O         140.1877  146.6299  162.2925 O.2     1  UNL1       -0.2699
     25 C         141.3201  145.4359  158.4248 C.3     1  UNL1        0.0233
     26 C         140.2594  145.6158  159.4701 C.3     1  UNL1        0.0938
     27 C         140.0973  143.1742  160.3433 C.3     1  UNL1        0.0938
     28 C         138.7747  142.5143  160.0880 C.3     1  UNL1        0.0233
@<TRIPOS>BOND
     1    25    26    1
     2    26    22    1
     3    22    27    1
     4    27    28    1
     5    22    23   am
     6    23    24    2
     7    23    16    1
     8    16    17   ar
     9    17    18   ar
    10    18    19   ar
    11    19     1    1
    12     1     2    2
    13     2     3    1
    14     3     4    1
    15     4     5    1
    16     5     6    1
    17     6     7    1
    18     1     9    1
    19     9    10   ar
    20    10    11   ar
    21    11    12   ar
    22    12    13   ar
    23    13    14    1
    24    13    15   ar
    25    19    20   ar
    26    20    21   ar
    27    21    16   ar
    28     7     2    1
    29    15     9   ar
    30     5     8    1
@<TRIPOS>MOLECULE
*****
 28 30 0 0 0
SMALL
GASTEIGER

@<TRIPOS>ATOM
      1 C         139.7688  141.3346  166.4815 C.2     1  UNL1       -0.0077
      2 C         140.0404  141.7851  167.8862 C.2     1  UNL1       -0.0414
      3 C         139.9599  140.8033  169.0174 C.3     1  UNL1        0.0391
      4 C         140.2315  141.2538  170.4222 C.3     1  UNL1        0.0730
      5 N         140.5837  142.6860  170.6957 N.3     1  UNL1       -0.2969
      6 C         140.6642  143.6677  169.5644 C.3     1  UNL1        0.0730
      7 C         140.3926  143.2173  168.1597 C.3     1  UNL1        0.0391
      8 H         141.4975  142.6832  171.1487 H       1  UNL1        0.1233
      9 C         139.4167  139.9024  166.2080 C.ar    1  UNL1        0.0016
     10 C         138.1547  139.3195  166.7717 C.ar    1  UNL1        0.0001
     11 C         137.8026  137.8874  166.4982 C.ar    1  UNL1        0.0023
     12 C         138.7124  137.0380  165.6611 C.ar    1  UNL1        0.0296
     13 C         139.9744  137.6208  165.0974 C.ar    1  UNL1        0.1401
     14 F         140.8842  136.7714  164.2603 F       1  UNL1       -0.2042
     15 C         140.3266  139.0531  165.3709 C.ar    1  UNL1        0.0296
     16 C         140.0104  144.2798  163.0877 C.ar    1  UNL1        0.0536
     17 C         138.6758  143.8990  163.6568 C.ar    1  UNL1        0.0045
     18 C         138.5953  142.9173  164.7880 C.ar    1  UNL1        0.0001
     19 C         139.8493  142.3163  165.3502 C.ar    1  UNL1       -0.0006
     20 C         141.1839  142.6971  164.7811 C.ar    1  UNL1        0.0001
     21 C         141.2644  143.6788  163.6499 C.ar    1  UNL1        0.0045
     22 N         140.1935  144.7703  160.5429 N.am    1  UNL1       -0.2761
     23 C         140.0909  145.2615  161.9565 C.2     1  UNL1        0.2490
     24 O         140.0688  146.7345  162.2387 O.2     1  UNL1       -0.2699
     25 C         140.2839  145.2630  157.9936 C.3     1  UNL1        0.0233
     26 C         140.2740  145.7520  159.4117 C.3     1  UNL1        0.0938
     27 C         140.2156  143.2972  160.2606 C.3     1  UNL1        0.0938
     28 C         138.9278  142.5429  160.1103 C.3     1  UNL1        0.0233
@<TRIPOS>BOND
     1    25    26    1
     2    26    22    1
     3    22    27    1
     4    27    28    1
     5    22    23   am
     6    23    24    2
     7    23    16    1
     8    16    17   ar
     9    17    18   ar
    10    18    19   ar
    11    19     1    1
    12     1     2    2
    13     2     3    1
    14     3     4    1
    15     4     5    1
    16     5     6    1
    17     6     7    1
    18     1     9    1
    19     9    10   ar
    20    10    11   ar
    21    11    12   ar
    22    12    13   ar
    23    13    14    1
    24    13    15   ar
    25    19    20   ar
    26    20    21   ar
    27    21    16   ar
    28     7     2    1
    29    15     9   ar
    30     5     8    1
@<TRIPOS>MOLECULE
*****
 28 30 0 0 0
SMALL
GASTEIGER

@<TRIPOS>ATOM
      1 C         140.9393  141.5095  166.6464 C.2     1  UNL1       -0.0077
      2 C         139.8286  140.5019  166.6797 C.2     1  UNL1       -0.0414
      3 C         139.2140  140.1062  167.9896 C.3     1  UNL1        0.0391
      4 C         138.1033  139.0986  168.0228 C.3     1  UNL1        0.0730
      5 N         137.6073  138.4867  166.7463 N.3     1  UNL1       -0.2969
      6 C         138.2219  138.8824  165.4365 C.3     1  UNL1        0.0730
      7 C         139.3325  139.8900  165.4032 C.3     1  UNL1        0.0391
      8 H         136.6128  138.7041  166.6826 H       1  UNL1        0.1233
      9 C         141.4353  142.1214  167.9229 C.ar    1  UNL1        0.0016
     10 C         140.5274  142.9925  168.7395 C.ar    1  UNL1        0.0001
     11 C         141.0234  143.6044  170.0160 C.ar    1  UNL1        0.0023
     12 C         142.4274  143.3452  170.4760 C.ar    1  UNL1        0.0296
     13 C         143.3354  142.4741  169.6594 C.ar    1  UNL1        0.1401
     14 F         144.7394  142.2149  170.1194 F       1  UNL1       -0.2042
     15 C         142.8394  141.8622  168.3828 C.ar    1  UNL1        0.0296
     16 C         142.7831  142.6967  162.7169 C.ar    1  UNL1        0.0536
     17 C         141.7392  143.5685  163.3493 C.ar    1  UNL1        0.0045
     18 C         141.1246  143.1728  164.6592 C.ar    1  UNL1        0.0001
     19 C         141.5539  141.9052  165.3365 C.ar    1  UNL1       -0.0006
     20 C         142.5978  141.0334  164.7041 C.ar    1  UNL1        0.0001
     21 C         143.2124  141.4291  163.3943 C.ar    1  UNL1        0.0045
     22 N         142.7077  142.7483  160.1204 N.am    1  UNL1       -0.2761
     23 C         143.3977  143.0924  161.4070 C.2     1  UNL1        0.2490
     24 O         144.7023  143.8322  161.3838 O.2     1  UNL1       -0.2699
     25 C         144.4022  142.2986  158.2030 C.3     1  UNL1        0.0233
     26 C         143.3223  143.1440  158.8106 C.3     1  UNL1        0.0938
     27 C         141.4030  142.0084  160.1436 C.3     1  UNL1        0.0938
     28 C         141.3863  140.5134  160.0231 C.3     1  UNL1        0.0233
@<TRIPOS>BOND
     1    25    26    1
     2    26    22    1
     3    22    27    1
     4    27    28    1
     5    22    23   am
     6    23    24    2
     7    23    16    1
     8    16    17   ar
     9    17    18   ar
    10    18    19   ar
    11    19     1    1
    12     1     2    2
    13     2     3    1
    14     3     4    1
    15     4     5    1
    16     5     6    1
    17     6     7    1
    18     1     9    1
    19     9    10   ar
    20    10    11   ar
    21    11    12   ar
    22    12    13   ar
    23    13    14    1
    24    13    15   ar
    25    19    20   ar
    26    20    21   ar
    27    21    16   ar
    28     7     2    1
    29    15     9   ar
    30     5     8    1
@<TRIPOS>MOLECULE
*****
 28 30 0 0 0
SMALL
GASTEIGER

@<TRIPOS>ATOM
      1 C         141.3140  141.4867  166.4835 C.2     1  UNL1       -0.0077
      2 C         142.2477  140.3198  166.3557 C.2     1  UNL1       -0.0414
      3 C         142.5788  139.4887  167.5597 C.3     1  UNL1        0.0391
      4 C         143.5126  138.3218  167.4318 C.3     1  UNL1        0.0730
      5 N         144.1153  137.9860  166.0999 N.3     1  UNL1       -0.2969
      6 C         143.7842  138.8170  164.8959 C.3     1  UNL1        0.0730
      7 C         142.8505  139.9839  165.0238 C.3     1  UNL1        0.0391
      8 H         143.8360  137.0292  165.8832 H       1  UNL1        0.1233
      9 C         140.7113  141.8225  167.8154 C.ar    1  UNL1        0.0016
     10 C         139.9266  140.7876  168.5660 C.ar    1  UNL1        0.0001
     11 C         139.3239  141.1234  169.8979 C.ar    1  UNL1        0.0023
     12 C         139.5059  142.4941  170.4793 C.ar    1  UNL1        0.0296
     13 C         140.2904  143.5290  169.7288 C.ar    1  UNL1        0.1401
     14 F         140.4724  144.8998  170.3102 F       1  UNL1       -0.2042
     15 C         140.8932  143.1932  168.3968 C.ar    1  UNL1        0.0296
     16 C         140.3208  143.9800  162.8715 C.ar    1  UNL1        0.0536
     17 C         139.4350  142.8327  163.2575 C.ar    1  UNL1        0.0045
     18 C         139.7660  142.0016  164.4615 C.ar    1  UNL1        0.0001
     19 C         140.9829  142.3178  165.2795 C.ar    1  UNL1       -0.0006
     20 C         141.8687  143.4651  164.8935 C.ar    1  UNL1        0.0001
     21 C         141.5376  144.2962  163.6895 C.ar    1  UNL1        0.0045
     22 N         140.5446  144.4398  160.3242 N.am    1  UNL1       -0.2761
     23 C         139.9897  144.8111  161.6674 C.2     1  UNL1        0.2490
     24 O         139.1038  146.0134  161.8066 O.2     1  UNL1       -0.2699
     25 C         141.2826  145.6050  158.1225 C.3     1  UNL1        0.0233
     26 C         140.2135  145.2709  159.1202 C.3     1  UNL1        0.0938
     27 C         141.4305  143.2374  160.1850 C.3     1  UNL1        0.0938
     28 C         142.9081  143.3644  160.4099 C.3     1  UNL1        0.0233
@<TRIPOS>BOND
     1    25    26    1
     2    26    22    1
     3    22    27    1
     4    27    28    1
     5    22    23   am
     6    23    24    2
     7    23    16    1
     8    16    17   ar
     9    17    18   ar
    10    18    19   ar
    11    19     1    1
    12     1     2    2
    13     2     3    1
    14     3     4    1
    15     4     5    1
    16     5     6    1
    17     6     7    1
    18     1     9    1
    19     9    10   ar
    20    10    11   ar
    21    11    12   ar
    22    12    13   ar
    23    13    14    1
    24    13    15   ar
    25    19    20   ar
    26    20    21   ar
    27    21    16   ar
    28     7     2    1
    29    15     9   ar
    30     5     8    1
@<TRIPOS>MOLECULE
*****
 28 30 0 0 0
SMALL
GASTEIGER

@<TRIPOS>ATOM
      1 C         141.2299  141.1520  164.3901 C.2     1  UNL1       -0.0077
      2 C         141.2133  139.7065  163.9900 C.2     1  UNL1       -0.0414
      3 C         141.4878  138.6424  165.0110 C.3     1  UNL1        0.0391
      4 C         141.4712  137.1969  164.6108 C.3     1  UNL1        0.0730
      5 N         141.1800  136.8154  163.1897 N.3     1  UNL1       -0.2969
      6 C         140.9054  137.8794  162.1687 C.3     1  UNL1        0.0730
      7 C         140.9220  139.3249  162.5688 C.3     1  UNL1        0.0391
      8 H         140.3607  136.2081  163.2098 H       1  UNL1        0.1233
      9 C         141.5211  141.5335  165.8112 C.ar    1  UNL1        0.0016
     10 C         142.9213  141.8804  166.2228 C.ar    1  UNL1        0.0001
     11 C         143.2125  142.2619  167.6439 C.ar    1  UNL1        0.0023
     12 C         142.1036  142.2965  168.6535 C.ar    1  UNL1        0.0296
     13 C         140.7035  141.9496  168.2419 C.ar    1  UNL1        0.1401
     14 F         139.5947  141.9842  169.2515 F       1  UNL1       -0.2042
     15 C         140.4123  141.5681  166.8208 C.ar    1  UNL1        0.0296
     16 C         140.4062  144.3441  161.3271 C.ar    1  UNL1        0.0536
     17 C         141.8077  144.1093  161.8073 C.ar    1  UNL1        0.0045
     18 C         142.0822  143.0452  162.8283 C.ar    1  UNL1        0.0001
     19 C         140.9553  142.2160  163.3691 C.ar    1  UNL1       -0.0006
     20 C         139.5539  142.4508  162.8888 C.ar    1  UNL1        0.0001
     21 C         139.2793  143.5149  161.8678 C.ar    1  UNL1        0.0045
     22 N         140.4903  145.1780  158.8679 N.am    1  UNL1       -0.2761
     23 C         140.1316  145.4081  160.3061 C.2     1  UNL1        0.2490
     24 O         139.4983  146.7023  160.7232 O.2     1  UNL1       -0.2699
     25 C         139.7510  145.8607  156.4726 C.3     1  UNL1        0.0233
     26 C         140.2158  146.2420  157.8469 C.3     1  UNL1        0.0938
     27 C         141.1237  143.8838  158.4507 C.3     1  UNL1        0.0938
     28 C         142.5728  143.8479  158.0653 C.3     1  UNL1        0.0233
@<TRIPOS>BOND
     1    25    26    1
     2    26    22    1
     3    22    27    1
     4    27    28    1
     5    22    23   am
     6    23    24    2
     7    23    16    1
     8    16    17   ar
     9    17    18   ar
    10    18    19   ar
    11    19     1    1
    12     1     2    2
    13     2     3    1
    14     3     4    1
    15     4     5    1
    16     5     6    1
    17     6     7    1
    18     1     9    1
    19     9    10   ar
    20    10    11   ar
    21    11    12   ar
    22    12    13   ar
    23    13    14    1
    24    13    15   ar
    25    19    20   ar
    26    20    21   ar
    27    21    16   ar
    28     7     2    1
    29    15     9   ar
    30     5     8    1
@<TRIPOS>MOLECULE
*****
 28 30 0 0 0
SMALL
GASTEIGER

@<TRIPOS>ATOM
      1 C         140.0897  142.0348  162.5663 C.2     1  UNL1       -0.0077
      2 C         139.1603  140.9509  162.1067 C.2     1  UNL1       -0.0414
      3 C         138.5552  141.0132  160.7355 C.3     1  UNL1        0.0391
      4 C         137.6258  139.9292  160.2759 C.3     1  UNL1        0.0730
      5 N         137.3014  138.7830  161.1874 N.3     1  UNL1       -0.2969
      6 C         137.9065  138.7207  162.5586 C.3     1  UNL1        0.0730
      7 C         138.8359  139.8046  163.0182 C.3     1  UNL1        0.0391
      8 H         137.5840  137.9316  160.7019 H       1  UNL1        0.1233
      9 C         140.4140  143.1810  161.6548 C.ar    1  UNL1        0.0016
     10 C         141.4677  143.0245  160.5987 C.ar    1  UNL1        0.0001
     11 C         141.7921  144.1707  159.6871 C.ar    1  UNL1        0.0023
     12 C         141.0628  145.4735  159.8317 C.ar    1  UNL1        0.0296
     13 C         140.0091  145.6301  160.8877 C.ar    1  UNL1        0.1401
     14 F         139.2798  146.9328  161.0322 F       1  UNL1       -0.2042
     15 C         139.6847  144.4838  161.7993 C.ar    1  UNL1        0.0296
     16 C         141.9048  141.8479  166.6797 C.ar    1  UNL1        0.0536
     17 C         142.5120  141.0621  165.5556 C.ar    1  UNL1        0.0045
     18 C         141.9070  141.1245  164.1844 C.ar    1  UNL1        0.0001
     19 C         140.6947  141.9725  163.9374 C.ar    1  UNL1       -0.0006
     20 C         140.0874  142.7583  165.0616 C.ar    1  UNL1        0.0001
     21 C         140.6925  142.6959  166.4327 C.ar    1  UNL1        0.0045
     22 N         141.9855  140.8056  169.0582 N.am    1  UNL1       -0.2761
     23 C         142.5098  141.7856  168.0509 C.2     1  UNL1        0.2490
     24 O         143.6391  142.7033  168.4147 O.2     1  UNL1       -0.2699
     25 C         142.0871  141.6500  171.5132 C.3     1  UNL1        0.0233
     26 C         142.5906  140.7433  170.4293 C.3     1  UNL1        0.0938
     27 C         140.8562  139.8878  168.6944 C.3     1  UNL1        0.0938
     28 C         139.4387  140.3016  168.9582 C.3     1  UNL1        0.0233
@<TRIPOS>BOND
     1    25    26    1
     2    26    22    1
     3    22    27    1
     4    27    28    1
     5    22    23   am
     6    23    24    2
     7    23    16    1
     8    16    17   ar
     9    17    18   ar
    10    18    19   ar
    11    19     1    1
    12     1     2    2
    13     2     3    1
    14     3     4    1
    15     4     5    1
    16     5     6    1
    17     6     7    1
    18     1     9    1
    19     9    10   ar
    20    10    11   ar
    21    11    12   ar
    22    12    13   ar
    23    13    14    1
    24    13    15   ar
    25    19    20   ar
    26    20    21   ar
    27    21    16   ar
    28     7     2    1
    29    15     9   ar
    30     5     8    1
@<TRIPOS>MOLECULE
*****
 28 30 0 0 0
SMALL
GASTEIGER

@<TRIPOS>ATOM
      1 C         140.9923  140.9198  167.1671 C.2     1  UNL1       -0.0077
      2 C         141.4334  141.3681  168.5288 C.2     1  UNL1       -0.0414
      3 C         140.7629  140.8188  169.7530 C.3     1  UNL1        0.0391
      4 C         141.2040  141.2672  171.1148 C.3     1  UNL1        0.0730
      5 N         142.3157  142.2648  171.2524 N.3     1  UNL1       -0.2969
      6 C         142.9862  142.8140  170.0282 C.3     1  UNL1        0.0730
      7 C         142.5451  142.3657  168.6664 C.3     1  UNL1        0.0391
      8 H         143.0432  141.8197  171.8119 H       1  UNL1        0.1233
      9 C         139.8806  139.9222  167.0296 C.ar    1  UNL1        0.0016
     10 C         138.8394  139.8067  168.1032 C.ar    1  UNL1        0.0001
     11 C         137.7277  138.8091  167.9656 C.ar    1  UNL1        0.0023
     12 C         137.6572  137.9270  166.7545 C.ar    1  UNL1        0.0296
     13 C         138.6983  138.0424  165.6809 C.ar    1  UNL1        0.1401
     14 F         138.6278  137.1603  164.4698 F       1  UNL1       -0.2042
     15 C         139.8101  139.0401  165.8184 C.ar    1  UNL1        0.0296
     16 C         143.0039  142.5677  163.4945 C.ar    1  UNL1        0.0536
     17 C         143.6488  141.4561  164.2679 C.ar    1  UNL1        0.0045
     18 C         142.9783  140.9068  165.4921 C.ar    1  UNL1        0.0001
     19 C         141.6628  141.4691  165.9429 C.ar    1  UNL1       -0.0006
     20 C         141.0179  142.5807  165.1695 C.ar    1  UNL1        0.0001
     21 C         141.6884  143.1300  163.9453 C.ar    1  UNL1        0.0045
     22 N         143.4783  142.4463  160.9430 N.am    1  UNL1       -0.2761
     23 C         143.6744  143.1170  162.2703 C.2     1  UNL1        0.2490
     24 O         144.5410  144.3369  162.3734 O.2     1  UNL1       -0.2699
     25 C         144.4916  142.0835  158.5783 C.3     1  UNL1        0.0233
     26 C         144.1489  142.9956  159.7188 C.3     1  UNL1        0.0938
     27 C         142.6117  141.2263  160.8399 C.3     1  UNL1        0.0938
     28 C         141.1832  141.3560  160.4011 C.3     1  UNL1        0.0233
@<TRIPOS>BOND
     1    25    26    1
     2    26    22    1
     3    22    27    1
     4    27    28    1
     5    22    23   am
     6    23    24    2
     7    23    16    1
     8    16    17   ar
     9    17    18   ar
    10    18    19   ar
    11    19     1    1
    12     1     2    2
    13     2     3    1
    14     3     4    1
    15     4     5    1
    16     5     6    1
    17     6     7    1
    18     1     9    1
    19     9    10   ar
    20    10    11   ar
    21    11    12   ar
    22    12    13   ar
    23    13    14    1
    24    13    15   ar
    25    19    20   ar
    26    20    21   ar
    27    21    16   ar
    28     7     2    1
    29    15     9   ar
    30     5     8    1
@<TRIPOS>MOLECULE
*****
 28 30 0 0 0
SMALL
GASTEIGER

@<TRIPOS>ATOM
      1 C         140.9228  140.8185  166.9970 C.2     1  UNL1       -0.0077
      2 C         141.9729  139.7494  167.0632 C.2     1  UNL1       -0.0414
      3 C         142.5270  139.3235  168.3904 C.3     1  UNL1        0.0391
      4 C         143.5770  138.2543  168.4566 C.3     1  UNL1        0.0730
      5 N         144.0729  137.6111  167.1955 N.3     1  UNL1       -0.2969
      6 C         143.5188  138.0370  165.8683 C.3     1  UNL1        0.0730
      7 C         142.4688  139.1061  165.8021 C.3     1  UNL1        0.0391
      8 H         143.8907  136.6114  167.2836 H       1  UNL1        0.1233
      9 C         140.4269  141.4617  168.2581 C.ar    1  UNL1        0.0016
     10 C         139.5429  140.6928  169.1947 C.ar    1  UNL1        0.0001
     11 C         139.0470  141.3360  170.4558 C.ar    1  UNL1        0.0023
     12 C         139.4351  142.7481  170.7802 C.ar    1  UNL1        0.0296
     13 C         140.3191  143.5170  169.8437 C.ar    1  UNL1        0.1401
     14 F         140.7072  144.9291  170.1681 F       1  UNL1       -0.2042
     15 C         140.8150  142.8738  168.5825 C.ar    1  UNL1        0.0296
     16 C         139.2605  142.0961  163.0153 C.ar    1  UNL1        0.0536
     17 C         138.5143  141.1028  163.8557 C.ar    1  UNL1        0.0045
     18 C         139.0684  140.6769  165.1829 C.ar    1  UNL1        0.0001
     19 C         140.3687  141.2444  165.6698 C.ar    1  UNL1       -0.0006
     20 C         141.1149  142.2377  164.8294 C.ar    1  UNL1        0.0001
     21 C         140.5608  142.6636  163.5021 C.ar    1  UNL1        0.0045
     22 N         139.0737  141.7673  160.4449 N.am    1  UNL1       -0.2761
     23 C         138.7064  142.5220  161.6880 C.2     1  UNL1        0.2490
     24 O         137.7850  143.7027  161.6039 O.2     1  UNL1       -0.2699
     25 C         139.2246  143.2448  158.3131 C.3     1  UNL1        0.0233
     26 C         138.5196  142.1932  159.1176 C.3     1  UNL1        0.0938
     27 C         139.9951  140.5866  160.5289 C.3     1  UNL1        0.0938
     28 C         139.4308  139.1997  160.6182 C.3     1  UNL1        0.0233
@<TRIPOS>BOND
     1    25    26    1
     2    26    22    1
     3    22    27    1
     4    27    28    1
     5    22    23   am
     6    23    24    2
     7    23    16    1
     8    16    17   ar
     9    17    18   ar
    10    18    19   ar
    11    19     1    1
    12     1     2    2
    13     2     3    1
    14     3     4    1
    15     4     5    1
    16     5     6    1
    17     6     7    1
    18     1     9    1
    19     9    10   ar
    20    10    11   ar
    21    11    12   ar
    22    12    13   ar
    23    13    14    1
    24    13    15   ar
    25    19    20   ar
    26    20    21   ar
    27    21    16   ar
    28     7     2    1
    29    15     9   ar
    30     5     8    1
@<TRIPOS>MOLECULE
*****
 28 30 0 0 0
SMALL
GASTEIGER

@<TRIPOS>ATOM
      1 C         141.9708  142.4534  161.8313 C.2     1  UNL1       -0.0077
      2 C         141.1053  143.6674  161.6670 C.2     1  UNL1       -0.0414
      3 C         140.9875  144.3285  160.3257 C.3     1  UNL1        0.0391
      4 C         140.1219  145.5426  160.1615 C.3     1  UNL1        0.0730
      5 N         139.3741  146.0954  161.3384 N.3     1  UNL1       -0.2969
      6 C         139.4919  145.4342  162.6797 C.3     1  UNL1        0.0730
      7 C         140.3575  144.2202  162.8440 C.3     1  UNL1        0.0391
      8 H         138.3848  146.0841  161.0905 H       1  UNL1        0.1233
      9 C         142.7186  141.9006  160.6543 C.ar    1  UNL1        0.0016
     10 C         142.2534  140.6348  159.9974 C.ar    1  UNL1        0.0001
     11 C         143.0011  140.0820  158.8204 C.ar    1  UNL1        0.0023
     12 C         144.2140  140.7950  158.3003 C.ar    1  UNL1        0.0296
     13 C         144.6792  142.0607  158.9571 C.ar    1  UNL1        0.1401
     14 F         145.8921  142.7736  158.4370 F       1  UNL1       -0.2042
     15 C         143.9315  142.6135  160.1342 C.ar    1  UNL1        0.0296
     16 C         142.3243  140.4698  165.8550 C.ar    1  UNL1        0.0536
     17 C         141.2808  140.0092  164.8808 C.ar    1  UNL1        0.0045
     18 C         141.1630  140.6704  163.5396 C.ar    1  UNL1        0.0001
     19 C         142.0886  141.7922  163.1725 C.ar    1  UNL1       -0.0006
     20 C         143.1321  142.2527  164.1467 C.ar    1  UNL1        0.0001
     21 C         143.2499  141.5915  165.4879 C.ar    1  UNL1        0.0045
     22 N         141.6143  140.2963  168.3481 N.am    1  UNL1       -0.2761
     23 C         142.4421  139.8086  167.1962 C.2     1  UNL1        0.2490
     24 O         143.3877  138.6597  167.3856 O.2     1  UNL1       -0.2699
     25 C         142.8810  139.9718  170.5932 C.3     1  UNL1        0.0233
     26 C         141.7321  139.6351  169.6894 C.3     1  UNL1        0.0938
     27 C         140.6687  141.4452  168.1588 C.3     1  UNL1        0.0938
     28 C         140.9617  142.7707  168.7969 C.3     1  UNL1        0.0233
@<TRIPOS>BOND
     1    25    26    1
     2    26    22    1
     3    22    27    1
     4    27    28    1
     5    22    23   am
     6    23    24    2
     7    23    16    1
     8    16    17   ar
     9    17    18   ar
    10    18    19   ar
    11    19     1    1
    12     1     2    2
    13     2     3    1
    14     3     4    1
    15     4     5    1
    16     5     6    1
    17     6     7    1
    18     1     9    1
    19     9    10   ar
    20    10    11   ar
    21    11    12   ar
    22    12    13   ar
    23    13    14    1
    24    13    15   ar
    25    19    20   ar
    26    20    21   ar
    27    21    16   ar
    28     7     2    1
    29    15     9   ar
    30     5     8    1
