@<TRIPOS>MOLECULE
*****
 41 45 0 0 0
SMALL
GASTEIGER

@<TRIPOS>ATOM
      1 C         138.9178  144.2017  162.3788 C.2     1  UNL1        0.2251
      2 O         137.5846  144.8829  162.4717 O.2     1  UNL1       -0.2749
      3 N         139.5281  143.5782  163.5989 N.am    1  UNL1       -0.2795
      4 C         140.8612  142.8971  163.5060 C.3     1  UNL1        0.0942
      5 C         141.4716  142.2735  164.7262 C.3     1  UNL1        0.0343
      6 C         140.7487  142.3312  166.0392 C.3     1  UNL1        0.0911
      7 C         139.4155  143.0124  166.1321 C.3     1  UNL1        0.0343
      8 C         138.8052  143.6359  164.9120 C.3     1  UNL1        0.0942
      9 C         141.0864  144.0287  158.4396 C.3     1  UNL1        0.0542
     10 C         141.4312  145.0923  159.4395 C.3     1  UNL1        0.0162
     11 C         140.7083  145.1500  160.7526 C.3     1  UNL1        0.0104
     12 C         139.6407  144.1441  161.0657 C.3     1  UNL1        0.0768
     13 C         139.2958  143.0804  160.0658 C.3     1  UNL1        0.0095
     14 C         138.6182  141.8937  159.4473 C.3     1  UNL1        0.0005
     15 C         138.3376  142.7259  161.1641 C.3     1  UNL1        0.0005
     16 C         140.0186  143.0227  158.7528 C.3     1  UNL1        0.0162
     17 N         141.8092  143.9711  157.1265 N.3     1  UNL1       -0.2962
     18 H         142.5516  144.6693  157.1682 H       1  UNL1        0.1235
     19 C         141.0620  144.2093  155.8479 C.3     1  UNL1        0.0768
     20 C         140.8244  143.0750  154.8957 C.3     1  UNL1        0.0220
     21 C         139.5330  148.3268  154.8690 C.ar    1  UNL1        0.1387
     22 C         140.4641  147.6280  153.9231 C.ar    1  UNL1        0.0366
     23 C         140.9738  146.2555  154.2495 C.ar    1  UNL1        0.0001
     24 C         140.5523  145.5818  155.5216 C.ar    1  UNL1       -0.0078
     25 C         139.6212  146.2806  156.4675 C.ar    1  UNL1        0.0001
     26 C         139.1116  147.6531  156.1411 C.ar    1  UNL1        0.0366
     27 C         138.5115  150.5889  155.6364 C.3     1  UNL1        0.2525
     28 O         139.0234  149.6993  154.5426 O.3     1  UNL1       -0.4714
     29 C         141.9793  141.5794  166.4521 C.2     1  UNL1        0.2286
     30 O         143.0215  142.2521  167.2956 O.2     1  UNL1       -0.2746
     31 N         142.1677  140.1550  166.0215 N.am    1  UNL1       -0.2793
     32 C         143.3400  139.2807  166.3553 C.3     1  UNL1        0.0935
     33 C         143.1138  137.9400  165.7216 C.3     1  UNL1        0.0233
     34 C         141.8015  137.9857  164.9963 C.3     1  UNL1        0.0233
     35 C         141.2169  139.3546  165.1816 C.3     1  UNL1        0.0935
     36 C         140.4532  142.1278  167.4957 C.ar    1  UNL1       -0.0145
     37 C         140.6340  143.2599  168.4629 C.ar    1  UNL1       -0.0038
     38 C         140.3384  143.0564  169.9194 C.ar    1  UNL1       -0.0003
     39 C         139.8622  141.7209  170.4086 C.ar    1  UNL1       -0.0000
     40 C         139.6815  140.5888  169.4414 C.ar    1  UNL1       -0.0003
     41 C         139.9770  140.7921  167.9849 C.ar    1  UNL1       -0.0038
@<TRIPOS>BOND
     1    27    28    1
     2    28    21    1
     3    21    22   ar
     4    22    23   ar
     5    23    24   ar
     6    24    19    1
     7    19    20    1
     8    19    17    1
     9     9    17    1
    10     9    10    1
    11    10    11    1
    12    11    12    1
    13    12     1    1
    14     1     2    2
    15     1     3   am
    16     3     4    1
    17     4     5    1
    18     5     6    1
    19     6    29    1
    20    29    30    2
    21    29    31   am
    22    31    32    1
    23    32    33    1
    24    33    34    1
    25    34    35    1
    26     6    36    1
    27    36    37   ar
    28    37    38   ar
    29    38    39   ar
    30    39    40   ar
    31    40    41   ar
    32     6     7    1
    33     7     8    1
    34    12    13    1
    35    13    14    1
    36    13    15    1
    37    13    16    1
    38    24    25   ar
    39    25    26   ar
    40    26    21   ar
    41    16     9    1
    42     8     3    1
    43    35    31    1
    44    41    36   ar
    45    17    18    1
@<TRIPOS>MOLECULE
*****
 41 45 0 0 0
SMALL
GASTEIGER

@<TRIPOS>ATOM
      1 C         138.8991  144.2351  162.3803 C.2     1  UNL1        0.2251
      2 O         137.5649  144.9147  162.4707 O.2     1  UNL1       -0.2749
      3 N         139.5058  143.6084  163.6005 N.am    1  UNL1       -0.2795
      4 C         140.8399  142.9289  163.5101 C.3     1  UNL1        0.0942
      5 C         141.4467  142.3021  164.7304 C.3     1  UNL1        0.0343
      6 C         140.7192  142.3549  166.0411 C.3     1  UNL1        0.0911
      7 C         139.3850  143.0344  166.1315 C.3     1  UNL1        0.0343
      8 C         138.7783  143.6612  164.9113 C.3     1  UNL1        0.0942
      9 C         141.0816  144.0768  158.4481 C.3     1  UNL1        0.0542
     10 C         141.4091  145.1486  159.4450 C.3     1  UNL1        0.0162
     11 C         140.6816  145.2014  160.7558 C.3     1  UNL1        0.0104
     12 C         139.6266  144.1824  161.0696 C.3     1  UNL1        0.0768
     13 C         139.2990  143.1105  160.0726 C.3     1  UNL1        0.0095
     14 C         138.6393  141.9125  159.4566 C.3     1  UNL1        0.0005
     15 C         138.3424  142.7472  161.1694 C.3     1  UNL1        0.0005
     16 C         140.0265  143.0577  158.7619 C.3     1  UNL1        0.0162
     17 N         141.8090  144.0240  157.1374 N.3     1  UNL1       -0.2962
     18 H         141.1090  143.8376  156.4194 H       1  UNL1        0.1235
     19 C         142.9144  143.0310  156.9326 C.3     1  UNL1        0.0768
     20 C         143.6836  143.0200  155.6449 C.3     1  UNL1        0.0220
     21 C         143.9228  140.0848  160.1811 C.ar    1  UNL1        0.1387
     22 C         143.1620  139.6341  158.9696 C.ar    1  UNL1        0.0366
     23 C         142.8258  140.6161  157.8868 C.ar    1  UNL1        0.0001
     24 C         143.2505  142.0489  158.0154 C.ar    1  UNL1       -0.0078
     25 C         144.0114  142.4997  159.2270 C.ar    1  UNL1        0.0001
     26 C         144.3476  141.5176  160.3098 C.ar    1  UNL1        0.0366
     27 C         143.3356  137.9556  161.5492 C.3     1  UNL1        0.2525
     28 O         144.2590  139.1028  161.2640 O.3     1  UNL1       -0.4714
     29 C         141.9491  141.6030  166.4559 C.2     1  UNL1        0.2286
     30 O         142.9893  142.2751  167.3022 O.2     1  UNL1       -0.2746
     31 N         142.1387  140.1790  166.0244 N.am    1  UNL1       -0.2793
     32 C         143.3105  139.3047  166.3598 C.3     1  UNL1        0.0935
     33 C         143.0860  137.9645  165.7245 C.3     1  UNL1        0.0233
     34 C         141.7753  138.0106  164.9964 C.3     1  UNL1        0.0233
     35 C         141.1899  139.3792  165.1818 C.3     1  UNL1        0.0935
     36 C         140.4188  142.1465  167.4958 C.ar    1  UNL1       -0.0145
     37 C         139.9546  140.8053  167.9812 C.ar    1  UNL1       -0.0038
     38 C         139.6543  140.5970  169.4361 C.ar    1  UNL1       -0.0003
     39 C         139.8181  141.7298  170.4054 C.ar    1  UNL1       -0.0000
     40 C         140.2823  143.0710  169.9200 C.ar    1  UNL1       -0.0003
     41 C         140.5827  143.2794  168.4653 C.ar    1  UNL1       -0.0038
@<TRIPOS>BOND
     1    27    28    1
     2    28    21    1
     3    21    22   ar
     4    22    23   ar
     5    23    24   ar
     6    24    19    1
     7    19    20    1
     8    19    17    1
     9     9    17    1
    10     9    10    1
    11    10    11    1
    12    11    12    1
    13    12     1    1
    14     1     2    2
    15     1     3   am
    16     3     4    1
    17     4     5    1
    18     5     6    1
    19     6    29    1
    20    29    30    2
    21    29    31   am
    22    31    32    1
    23    32    33    1
    24    33    34    1
    25    34    35    1
    26     6    36    1
    27    36    37   ar
    28    37    38   ar
    29    38    39   ar
    30    39    40   ar
    31    40    41   ar
    32     6     7    1
    33     7     8    1
    34    12    13    1
    35    13    14    1
    36    13    15    1
    37    13    16    1
    38    24    25   ar
    39    25    26   ar
    40    26    21   ar
    41    16     9    1
    42     8     3    1
    43    35    31    1
    44    41    36   ar
    45    17    18    1
@<TRIPOS>MOLECULE
*****
 41 45 0 0 0
SMALL
GASTEIGER

@<TRIPOS>ATOM
      1 C         144.7309  141.8459  163.2055 C.2     1  UNL1        0.2251
      2 O         146.2173  141.7049  163.0617 O.2     1  UNL1       -0.2749
      3 N         143.9008  142.2724  162.0312 N.am    1  UNL1       -0.2795
      4 C         142.4145  142.4134  162.1751 C.3     1  UNL1        0.0942
      5 C         141.5843  142.8400  161.0008 C.3     1  UNL1        0.0343
      6 C         142.2407  143.1256  159.6826 C.3     1  UNL1        0.0911
      7 C         143.7272  142.9846  159.5387 C.3     1  UNL1        0.0343
      8 C         144.5572  142.5580  160.7130 C.3     1  UNL1        0.0942
      9 C         142.7618  140.9891  167.1601 C.3     1  UNL1        0.0542
     10 C         143.1644  142.3912  166.8109 C.3     1  UNL1        0.0162
     11 C         143.8208  142.6768  165.4927 C.3     1  UNL1        0.0104
     12 C         144.0745  141.5603  164.5237 C.3     1  UNL1        0.0768
     13 C         143.6719  140.1581  164.8729 C.3     1  UNL1        0.0095
     14 C         143.4733  138.6764  164.7495 C.3     1  UNL1        0.0005
     15 C         144.2593  139.9291  163.5119 C.3     1  UNL1        0.0005
     16 C         143.0156  139.8725  166.1911 C.3     1  UNL1        0.0162
     17 N         142.1055  140.7035  168.4783 N.3     1  UNL1       -0.2962
     18 H         142.5082  139.8329  168.8253 H       1  UNL1        0.1235
     19 C         140.6152  140.5529  168.5571 C.3     1  UNL1        0.0768
     20 C         139.9497  140.3648  169.8882 C.3     1  UNL1        0.0220
     21 C         138.1407  140.6650  164.8002 C.ar    1  UNL1        0.1387
     22 C         138.9510  141.8621  165.2006 C.ar    1  UNL1        0.0366
     23 C         139.7759  141.8247  166.4529 C.ar    1  UNL1        0.0001
     24 C         139.7903  140.5903  167.3048 C.ar    1  UNL1       -0.0078
     25 C         138.9800  139.3932  166.9045 C.ar    1  UNL1        0.0001
     26 C         138.1552  139.4306  165.6522 C.ar    1  UNL1        0.0366
     27 C         137.7276  141.5818  162.4046 C.3     1  UNL1        0.2525
     28 O         137.3158  140.7024  163.5479 O.3     1  UNL1       -0.4714
     29 C         140.8096  143.3987  159.3256 C.2     1  UNL1        0.2286
     30 O         140.2734  144.7979  159.3944 O.2     1  UNL1       -0.2746
     31 N         139.9148  142.2727  158.8999 N.am    1  UNL1       -0.2793
     32 C         138.4699  142.3919  158.5151 C.3     1  UNL1        0.0935
     33 C         137.9698  141.0226  158.1616 C.3     1  UNL1        0.0233
     34 C         139.1057  140.0571  158.3280 C.3     1  UNL1        0.0233
     35 C         140.3077  140.8296  158.7843 C.3     1  UNL1        0.0935
     36 C         142.4000  143.5060  158.2405 C.ar    1  UNL1       -0.0145
     37 C         142.8194  142.4751  157.2348 C.ar    1  UNL1       -0.0038
     38 C         142.9787  142.8556  155.7926 C.ar    1  UNL1       -0.0003
     39 C         142.7188  144.2669  155.3561 C.ar    1  UNL1       -0.0000
     40 C         142.2994  145.2977  156.3618 C.ar    1  UNL1       -0.0003
     41 C         142.1401  144.9174  157.8039 C.ar    1  UNL1       -0.0038
@<TRIPOS>BOND
     1    27    28    1
     2    28    21    1
     3    21    22   ar
     4    22    23   ar
     5    23    24   ar
     6    24    19    1
     7    19    20    1
     8    19    17    1
     9     9    17    1
    10     9    10    1
    11    10    11    1
    12    11    12    1
    13    12     1    1
    14     1     2    2
    15     1     3   am
    16     3     4    1
    17     4     5    1
    18     5     6    1
    19     6    29    1
    20    29    30    2
    21    29    31   am
    22    31    32    1
    23    32    33    1
    24    33    34    1
    25    34    35    1
    26     6    36    1
    27    36    37   ar
    28    37    38   ar
    29    38    39   ar
    30    39    40   ar
    31    40    41   ar
    32     6     7    1
    33     7     8    1
    34    12    13    1
    35    13    14    1
    36    13    15    1
    37    13    16    1
    38    24    25   ar
    39    25    26   ar
    40    26    21   ar
    41    16     9    1
    42     8     3    1
    43    35    31    1
    44    41    36   ar
    45    17    18    1
@<TRIPOS>MOLECULE
*****
 41 45 0 0 0
SMALL
GASTEIGER

@<TRIPOS>ATOM
      1 C         143.1255  143.9736  162.4228 C.2     1  UNL1        0.2251
      2 O         144.4811  144.6151  162.4542 O.2     1  UNL1       -0.2749
      3 N         142.6343  143.1998  163.6102 N.am    1  UNL1       -0.2795
      4 C         141.2788  142.5584  163.5788 C.3     1  UNL1        0.0942
      5 C         140.7876  141.7845  164.7662 C.3     1  UNL1        0.0343
      6 C         141.6519  141.6521  165.9850 C.3     1  UNL1        0.0911
      7 C         143.0076  142.2936  166.0163 C.3     1  UNL1        0.0343
      8 C         143.4987  143.0674  164.8289 C.3     1  UNL1        0.0942
      9 C         140.5324  144.3709  158.7666 C.3     1  UNL1        0.0542
     10 C         140.2917  145.2523  159.9562 C.3     1  UNL1        0.0162
     11 C         141.1561  145.1199  161.1749 C.3     1  UNL1        0.0104
     12 C         142.2611  144.1060  161.2041 C.3     1  UNL1        0.0768
     13 C         142.5019  143.2245  160.0145 C.3     1  UNL1        0.0095
     14 C         143.1169  142.1699  159.1431 C.3     1  UNL1        0.0005
     15 C         143.5798  142.7259  160.9306 C.3     1  UNL1        0.0005
     16 C         141.6375  143.3569  158.7958 C.3     1  UNL1        0.0162
     17 N         139.6680  144.5033  157.5479 N.3     1  UNL1       -0.2962
     18 H         139.3169  143.5700  157.3331 H       1  UNL1        0.1235
     19 C         140.2436  145.0525  156.2763 C.3     1  UNL1        0.0768
     20 C         141.1595  144.2077  155.4413 C.3     1  UNL1        0.0220
     21 C         139.2225  149.2349  154.9665 C.ar    1  UNL1        0.1387
     22 C         140.0173  148.3391  154.0633 C.ar    1  UNL1        0.0366
     23 C         140.3577  146.9450  154.4999 C.ar    1  UNL1        0.0001
     24 C         139.9032  146.4467  155.8397 C.ar    1  UNL1       -0.0078
     25 C         139.1084  147.3424  156.7429 C.ar    1  UNL1        0.0001
     26 C         138.7680  148.7365  156.3063 C.ar    1  UNL1        0.0366
     27 C         138.8386  151.7405  155.5362 C.3     1  UNL1        0.2525
     28 O         138.8821  150.6290  154.5299 O.3     1  UNL1       -0.4714
     29 C         140.4518  140.8704  166.4306 C.2     1  UNL1        0.2286
     30 O         139.6161  141.3659  167.5735 O.2     1  UNL1       -0.2746
     31 N         140.0874  139.5932  165.7334 N.am    1  UNL1       -0.2793
     32 C         138.9223  138.7088  166.0656 C.3     1  UNL1        0.0935
     33 C         138.9389  137.5452  165.1191 C.3     1  UNL1        0.0233
     34 C         140.1143  137.7105  164.2020 C.3     1  UNL1        0.0233
     35 C         140.8241  138.9762  164.5816 C.3     1  UNL1        0.0935
     36 C         142.0995  141.2482  167.3584 C.ar    1  UNL1       -0.0145
     37 C         142.2037  139.7952  167.7163 C.ar    1  UNL1       -0.0038
     38 C         142.6513  139.3914  169.0899 C.ar    1  UNL1       -0.0003
     39 C         142.9947  140.4403  170.1055 C.ar    1  UNL1       -0.0000
     40 C         142.8905  141.8933  169.7476 C.ar    1  UNL1       -0.0003
     41 C         142.4429  142.2973  168.3741 C.ar    1  UNL1       -0.0038
@<TRIPOS>BOND
     1    27    28    1
     2    28    21    1
     3    21    22   ar
     4    22    23   ar
     5    23    24   ar
     6    24    19    1
     7    19    20    1
     8    19    17    1
     9     9    17    1
    10     9    10    1
    11    10    11    1
    12    11    12    1
    13    12     1    1
    14     1     2    2
    15     1     3   am
    16     3     4    1
    17     4     5    1
    18     5     6    1
    19     6    29    1
    20    29    30    2
    21    29    31   am
    22    31    32    1
    23    32    33    1
    24    33    34    1
    25    34    35    1
    26     6    36    1
    27    36    37   ar
    28    37    38   ar
    29    38    39   ar
    30    39    40   ar
    31    40    41   ar
    32     6     7    1
    33     7     8    1
    34    12    13    1
    35    13    14    1
    36    13    15    1
    37    13    16    1
    38    24    25   ar
    39    25    26   ar
    40    26    21   ar
    41    16     9    1
    42     8     3    1
    43    35    31    1
    44    41    36   ar
    45    17    18    1
@<TRIPOS>MOLECULE
*****
 41 45 0 0 0
SMALL
GASTEIGER

@<TRIPOS>ATOM
      1 C         140.6097  144.5901  162.4117 C.2     1  UNL1        0.2251
      2 O         140.8019  146.0711  162.2706 O.2     1  UNL1       -0.2749
      3 N         140.1801  143.7736  161.2291 N.am    1  UNL1       -0.2795
      4 C         139.9879  142.2927  161.3702 C.3     1  UNL1        0.0942
      5 C         139.5582  141.4760  160.1876 C.3     1  UNL1        0.0343
      6 C         139.3209  142.1404  158.8638 C.3     1  UNL1        0.0911
      7 C         139.5132  143.6213  158.7227 C.3     1  UNL1        0.0343
      8 C         139.9427  144.4379  159.9054 C.3     1  UNL1        0.0942
      9 C         141.3217  142.5971  166.3830 C.3     1  UNL1        0.0542
     10 C         142.3650  142.5212  165.3080 C.3     1  UNL1        0.0162
     11 C         142.1276  143.1855  163.9842 C.3     1  UNL1        0.0104
     12 C         140.8470  143.9258  163.7355 C.3     1  UNL1        0.0768
     13 C         139.8037  144.0018  164.8106 C.3     1  UNL1        0.0095
     14 C         138.5235  144.3506  165.5103 C.3     1  UNL1        0.0005
     15 C         139.1218  144.7872  163.7298 C.3     1  UNL1        0.0005
     16 C         140.0410  143.3375  166.1343 C.3     1  UNL1        0.0162
     17 N         141.5591  141.9328  167.7068 N.3     1  UNL1       -0.2962
     18 H         142.5664  141.9460  167.8664 H       1  UNL1        0.1235
     19 C         141.1038  140.5211  167.9298 C.3     1  UNL1        0.0768
     20 C         141.2495  139.8911  169.2832 C.3     1  UNL1        0.0220
     21 C         139.3009  138.1761  164.5386 C.ar    1  UNL1        0.1387
     22 C         140.7903  138.2233  164.7093 C.ar    1  UNL1        0.0366
     23 C         141.3913  139.0050  165.8397 C.ar    1  UNL1        0.0001
     24 C         140.5028  139.7394  166.7994 C.ar    1  UNL1       -0.0078
     25 C         139.0133  139.6922  166.6287 C.ar    1  UNL1        0.0001
     26 C         138.4124  138.9105  165.4983 C.ar    1  UNL1        0.0366
     27 C         138.2447  138.1014  162.1661 C.3     1  UNL1        0.2525
     28 O         138.6999  137.3944  163.4082 O.3     1  UNL1       -0.4714
     29 C         139.0086  140.7187  158.5015 C.2     1  UNL1        0.2286
     30 O         137.5845  140.2486  158.4687 O.2     1  UNL1       -0.2746
     31 N         140.1202  139.7671  158.1721 N.am    1  UNL1       -0.2793
     32 C         139.9626  138.3241  157.7939 C.3     1  UNL1        0.0935
     33 C         141.3297  137.7565  157.5510 C.3     1  UNL1        0.0233
     34 C         142.3323  138.8488  157.7792 C.3     1  UNL1        0.0233
     35 C         141.5848  140.0914  158.1630 C.3     1  UNL1        0.0935
     36 C         138.9751  142.3110  157.4143 C.ar    1  UNL1       -0.0145
     37 C         137.5448  142.4942  157.0010 C.ar    1  UNL1       -0.0038
     38 C         137.1990  142.6648  155.5513 C.ar    1  UNL1       -0.0003
     39 C         138.2834  142.6522  154.5151 C.ar    1  UNL1       -0.0000
     40 C         139.7136  142.4690  154.9284 C.ar    1  UNL1       -0.0003
     41 C         140.0595  142.2984  156.3780 C.ar    1  UNL1       -0.0038
@<TRIPOS>BOND
     1    27    28    1
     2    28    21    1
     3    21    22   ar
     4    22    23   ar
     5    23    24   ar
     6    24    19    1
     7    19    20    1
     8    19    17    1
     9     9    17    1
    10     9    10    1
    11    10    11    1
    12    11    12    1
    13    12     1    1
    14     1     2    2
    15     1     3   am
    16     3     4    1
    17     4     5    1
    18     5     6    1
    19     6    29    1
    20    29    30    2
    21    29    31   am
    22    31    32    1
    23    32    33    1
    24    33    34    1
    25    34    35    1
    26     6    36    1
    27    36    37   ar
    28    37    38   ar
    29    38    39   ar
    30    39    40   ar
    31    40    41   ar
    32     6     7    1
    33     7     8    1
    34    12    13    1
    35    13    14    1
    36    13    15    1
    37    13    16    1
    38    24    25   ar
    39    25    26   ar
    40    26    21   ar
    41    16     9    1
    42     8     3    1
    43    35    31    1
    44    41    36   ar
    45    17    18    1
@<TRIPOS>MOLECULE
*****
 41 45 0 0 0
SMALL
GASTEIGER

@<TRIPOS>ATOM
      1 C         139.4159  144.2200  161.9814 C.2     1  UNL1        0.2251
      2 O         138.8479  145.5904  162.2040 O.2     1  UNL1       -0.2749
      3 N         140.0043  143.4563  163.1305 N.am    1  UNL1       -0.2795
      4 C         140.5722  142.0860  162.9079 C.3     1  UNL1        0.0942
      5 C         141.1606  141.3221  164.0570 C.3     1  UNL1        0.0343
      6 C         141.1810  141.9287  165.4287 C.3     1  UNL1        0.0911
      7 C         140.6130  143.2991  165.6513 C.3     1  UNL1        0.0343
      8 C         140.0246  144.0628  164.5022 C.3     1  UNL1        0.0942
      9 C         139.3548  142.4003  157.8662 C.3     1  UNL1        0.0542
     10 C         138.4155  141.8982  158.9223 C.3     1  UNL1        0.0162
     11 C         138.4359  142.5047  160.2940 C.3     1  UNL1        0.0104
     12 C         139.3956  143.6134  160.6096 C.3     1  UNL1        0.0768
     13 C         140.3350  144.1157  159.5535 C.3     1  UNL1        0.0095
     14 C         141.4112  144.9262  158.8942 C.3     1  UNL1        0.0005
     15 C         140.7291  145.0037  160.6963 C.3     1  UNL1        0.0005
     16 C         140.3146  143.5091  158.1818 C.3     1  UNL1        0.0162
     17 N         139.3345  141.7938  156.4944 N.3     1  UNL1       -0.2962
     18 H         138.4084  141.3858  156.3666 H       1  UNL1        0.1235
     19 C         140.3294  140.7324  156.1288 C.3     1  UNL1        0.0768
     20 C         140.3511  140.1721  154.7376 C.3     1  UNL1        0.0220
     21 C         143.2488  139.2293  159.2057 C.ar    1  UNL1        0.1387
     22 C         141.8802  138.6228  159.1112 C.ar    1  UNL1        0.0366
     23 C         140.9071  139.1239  158.0855 C.ar    1  UNL1        0.0001
     24 C         141.3025  140.2314  157.1545 C.ar    1  UNL1       -0.0078
     25 C         142.6711  140.8379  157.2490 C.ar    1  UNL1        0.0001
     26 C         143.6443  140.3368  158.2747 C.ar    1  UNL1        0.0366
     27 C         143.7238  138.0082  161.4492 C.3     1  UNL1        0.2525
     28 O         144.2220  138.7283  160.2314 O.3     1  UNL1       -0.4714
     29 C         141.8349  140.6099  165.7173 C.2     1  UNL1        0.2286
     30 O         141.1292  139.5920  166.5634 O.2     1  UNL1       -0.2746
     31 N         143.1945  140.3091  165.1598 N.am    1  UNL1       -0.2793
     32 C         143.9696  139.0408  165.3621 C.3     1  UNL1        0.0935
     33 C         145.2719  139.1715  164.6294 C.3     1  UNL1        0.0233
     34 C         145.3018  140.5206  163.9743 C.3     1  UNL1        0.0233
     35 C         144.0180  141.2237  164.3021 C.3     1  UNL1        0.0935
     36 C         141.4285  142.0773  166.9007 C.ar    1  UNL1       -0.0145
     37 C         140.2734  142.0941  167.8575 C.ar    1  UNL1       -0.0038
     38 C         140.5209  142.2426  169.3295 C.ar    1  UNL1       -0.0003
     39 C         141.9233  142.3744  169.8446 C.ar    1  UNL1       -0.0000
     40 C         143.0784  142.3576  168.8878 C.ar    1  UNL1       -0.0003
     41 C         142.8311  142.2091  167.4159 C.ar    1  UNL1       -0.0038
@<TRIPOS>BOND
     1    27    28    1
     2    28    21    1
     3    21    22   ar
     4    22    23   ar
     5    23    24   ar
     6    24    19    1
     7    19    20    1
     8    19    17    1
     9     9    17    1
    10     9    10    1
    11    10    11    1
    12    11    12    1
    13    12     1    1
    14     1     2    2
    15     1     3   am
    16     3     4    1
    17     4     5    1
    18     5     6    1
    19     6    29    1
    20    29    30    2
    21    29    31   am
    22    31    32    1
    23    32    33    1
    24    33    34    1
    25    34    35    1
    26     6    36    1
    27    36    37   ar
    28    37    38   ar
    29    38    39   ar
    30    39    40   ar
    31    40    41   ar
    32     6     7    1
    33     7     8    1
    34    12    13    1
    35    13    14    1
    36    13    15    1
    37    13    16    1
    38    24    25   ar
    39    25    26   ar
    40    26    21   ar
    41    16     9    1
    42     8     3    1
    43    35    31    1
    44    41    36   ar
    45    17    18    1
@<TRIPOS>MOLECULE
*****
 41 45 0 0 0
SMALL
GASTEIGER

@<TRIPOS>ATOM
      1 C         143.2068  144.0604  162.4538 C.2     1  UNL1        0.2251
      2 O         144.5388  144.7478  162.5124 O.2     1  UNL1       -0.2749
      3 N         142.7147  143.2767  163.6343 N.am    1  UNL1       -0.2795
      4 C         141.3828  142.5893  163.5757 C.3     1  UNL1        0.0942
      5 C         140.8906  141.8057  164.7563 C.3     1  UNL1        0.0343
      6 C         141.7304  141.7094  165.9954 C.3     1  UNL1        0.0911
      7 C         143.0624  142.3968  166.0540 C.3     1  UNL1        0.0343
      8 C         143.5545  143.1805  164.8735 C.3     1  UNL1        0.0942
      9 C         140.6874  144.3491  158.7363 C.3     1  UNL1        0.0542
     10 C         140.3428  145.1726  159.9418 C.3     1  UNL1        0.0162
     11 C         141.1826  145.0764  161.1809 C.3     1  UNL1        0.0104
     12 C         142.3670  144.1566  161.2146 C.3     1  UNL1        0.0768
     13 C         142.7117  143.3331  160.0092 C.3     1  UNL1        0.0095
     14 C         143.4353  142.3586  159.1278 C.3     1  UNL1        0.0005
     15 C         143.8027  142.8984  160.9422 C.3     1  UNL1        0.0005
     16 C         141.8719  143.4293  158.7700 C.3     1  UNL1        0.0162
     17 N         139.8476  144.4454  157.4972 N.3     1  UNL1       -0.2962
     18 H         139.2882  145.2937  157.5858 H       1  UNL1        0.1235
     19 C         138.9005  143.3368  157.1451 C.3     1  UNL1        0.0768
     20 C         137.9921  143.4748  155.9595 C.3     1  UNL1        0.0220
     21 C         138.7844  139.5973  159.6455 C.ar    1  UNL1        0.1387
     22 C         138.1973  140.8720  160.1750 C.ar    1  UNL1        0.0366
     23 C         138.2360  142.1185  159.3415 C.ar    1  UNL1        0.0001
     24 C         138.8618  142.0903  157.9786 C.ar    1  UNL1       -0.0078
     25 C         139.4489  140.8156  157.4492 C.ar    1  UNL1        0.0001
     26 C         139.4102  139.5691  158.2827 C.ar    1  UNL1        0.0366
     27 C         137.8775  138.2921  161.7008 C.3     1  UNL1        0.2525
     28 O         138.7457  138.3508  160.4790 O.3     1  UNL1       -0.4714
     29 C         140.5474  140.8897  166.4181 C.2     1  UNL1        0.2286
     30 O         139.6543  141.3751  167.5212 O.2     1  UNL1       -0.2746
     31 N         140.2576  139.5847  165.7378 N.am    1  UNL1       -0.2793
     32 C         139.1175  138.6614  166.0505 C.3     1  UNL1        0.0935
     33 C         139.2122  137.4799  165.1313 C.3     1  UNL1        0.0233
     34 C         140.4109  137.6730  164.2503 C.3     1  UNL1        0.0233
     35 C         141.0569  138.9738  164.6252 C.3     1  UNL1        0.0935
     36 C         142.1594  141.3285  167.3813 C.ar    1  UNL1       -0.0145
     37 C         142.2963  139.8817  167.7530 C.ar    1  UNL1       -0.0038
     38 C         142.7253  139.5008  169.1390 C.ar    1  UNL1       -0.0003
     39 C         143.0173  140.5666  170.1532 C.ar    1  UNL1       -0.0000
     40 C         142.8803  142.0133  169.7815 C.ar    1  UNL1       -0.0003
     41 C         142.4514  142.3943  168.3956 C.ar    1  UNL1       -0.0038
@<TRIPOS>BOND
     1    27    28    1
     2    28    21    1
     3    21    22   ar
     4    22    23   ar
     5    23    24   ar
     6    24    19    1
     7    19    20    1
     8    19    17    1
     9     9    17    1
    10     9    10    1
    11    10    11    1
    12    11    12    1
    13    12     1    1
    14     1     2    2
    15     1     3   am
    16     3     4    1
    17     4     5    1
    18     5     6    1
    19     6    29    1
    20    29    30    2
    21    29    31   am
    22    31    32    1
    23    32    33    1
    24    33    34    1
    25    34    35    1
    26     6    36    1
    27    36    37   ar
    28    37    38   ar
    29    38    39   ar
    30    39    40   ar
    31    40    41   ar
    32     6     7    1
    33     7     8    1
    34    12    13    1
    35    13    14    1
    36    13    15    1
    37    13    16    1
    38    24    25   ar
    39    25    26   ar
    40    26    21   ar
    41    16     9    1
    42     8     3    1
    43    35    31    1
    44    41    36   ar
    45    17    18    1
@<TRIPOS>MOLECULE
*****
 41 45 0 0 0
SMALL
GASTEIGER

@<TRIPOS>ATOM
      1 C         142.1702  139.7852  157.3359 C.2     1  UNL1        0.2251
      2 O         141.2113  140.5596  156.4809 O.2     1  UNL1       -0.2749
      3 N         142.5929  140.3276  158.6689 N.am    1  UNL1       -0.2795
      4 C         143.5518  139.5532  159.5238 C.3     1  UNL1        0.0942
      5 C         143.9746  140.0956  160.8569 C.3     1  UNL1        0.0343
      6 C         143.4386  141.4124  161.3350 C.3     1  UNL1        0.0911
      7 C         142.4797  142.1868  160.4801 C.3     1  UNL1        0.0343
      8 C         142.0569  141.6444  159.1470 C.3     1  UNL1        0.0942
      9 C         143.7784  135.8347  155.9015 C.3     1  UNL1        0.0542
     10 C         142.6483  135.8711  156.8871 C.3     1  UNL1        0.0162
     11 C         142.1122  137.1879  157.3652 C.3     1  UNL1        0.0104
     12 C         142.7062  138.4683  156.8578 C.3     1  UNL1        0.0768
     13 C         143.8364  138.4320  155.8721 C.3     1  UNL1        0.0095
     14 C         144.9099  138.9106  154.9401 C.3     1  UNL1        0.0005
     15 C         143.6732  139.9150  156.0266 C.3     1  UNL1        0.0005
     16 C         144.3725  137.1152  155.3940 C.3     1  UNL1        0.0162
     17 N         144.3145  134.5179  155.4234 N.3     1  UNL1       -0.2962
     18 H         144.6760  134.6714  154.4820 H       1  UNL1        0.1235
     19 C         143.4115  133.3223  155.3507 C.3     1  UNL1        0.0768
     20 C         142.2632  133.3073  154.3858 C.3     1  UNL1        0.0220
     21 C         144.1476  129.7808  158.0276 C.ar    1  UNL1        0.1387
     22 C         143.0178  129.7535  157.0413 C.ar    1  UNL1        0.0366
     23 C         142.7725  130.9340  156.1490 C.ar    1  UNL1        0.0001
     24 C         143.6569  132.1418  156.2430 C.ar    1  UNL1       -0.0078
     25 C         144.7867  132.1691  157.2293 C.ar    1  UNL1        0.0001
     26 C         145.0320  130.9886  158.1216 C.ar    1  UNL1        0.0366
     27 C         145.7811  128.3011  159.4031 C.3     1  UNL1        0.2525
     28 O         144.3930  128.6003  158.9199 O.3     1  UNL1       -0.4714
     29 C         144.3172  141.0518  162.4960 C.2     1  UNL1        0.2286
     30 O         145.6905  141.6446  162.6098 O.2     1  UNL1       -0.2746
     31 N         143.8227  140.0985  163.5432 N.am    1  UNL1       -0.2793
     32 C         144.5839  139.6466  164.7541 C.3     1  UNL1        0.0935
     33 C         143.7119  138.6985  165.5227 C.3     1  UNL1        0.0233
     34 C         142.4117  138.5644  164.7866 C.3     1  UNL1        0.0233
     35 C         142.4802  139.4297  163.5633 C.3     1  UNL1        0.0935
     36 C         143.2076  142.6040  162.2163 C.ar    1  UNL1       -0.0145
     37 C         144.2039  143.7251  162.2380 C.ar    1  UNL1       -0.0038
     38 C         143.9730  144.9168  163.1194 C.ar    1  UNL1       -0.0003
     39 C         142.7458  144.9873  163.9790 C.ar    1  UNL1       -0.0000
     40 C         141.7496  143.8661  163.9573 C.ar    1  UNL1       -0.0003
     41 C         141.9804  142.6745  163.0760 C.ar    1  UNL1       -0.0038
@<TRIPOS>BOND
     1    27    28    1
     2    28    21    1
     3    21    22   ar
     4    22    23   ar
     5    23    24   ar
     6    24    19    1
     7    19    20    1
     8    19    17    1
     9     9    17    1
    10     9    10    1
    11    10    11    1
    12    11    12    1
    13    12     1    1
    14     1     2    2
    15     1     3   am
    16     3     4    1
    17     4     5    1
    18     5     6    1
    19     6    29    1
    20    29    30    2
    21    29    31   am
    22    31    32    1
    23    32    33    1
    24    33    34    1
    25    34    35    1
    26     6    36    1
    27    36    37   ar
    28    37    38   ar
    29    38    39   ar
    30    39    40   ar
    31    40    41   ar
    32     6     7    1
    33     7     8    1
    34    12    13    1
    35    13    14    1
    36    13    15    1
    37    13    16    1
    38    24    25   ar
    39    25    26   ar
    40    26    21   ar
    41    16     9    1
    42     8     3    1
    43    35    31    1
    44    41    36   ar
    45    17    18    1
@<TRIPOS>MOLECULE
*****
 41 45 0 0 0
SMALL
GASTEIGER

@<TRIPOS>ATOM
      1 C         139.3636  144.2089  162.0845 C.2     1  UNL1        0.2251
      2 O         138.7694  145.5610  162.3472 O.2     1  UNL1       -0.2749
      3 N         139.9649  143.4221  163.2111 N.am    1  UNL1       -0.2795
      4 C         140.5590  142.0701  162.9484 C.3     1  UNL1        0.0942
      5 C         141.1603  141.2833  164.0750 C.3     1  UNL1        0.0343
      6 C         141.1675  141.8485  165.4645 C.3     1  UNL1        0.0911
      7 C         140.5733  143.2006  165.7272 C.3     1  UNL1        0.0343
      8 C         139.9721  143.9873  164.6005 C.3     1  UNL1        0.0942
      9 C         139.3421  142.5132  157.9162 C.3     1  UNL1        0.0542
     10 C         138.3708  142.0023  158.9387 C.3     1  UNL1        0.0162
     11 C         138.3780  142.5676  160.3281 C.3     1  UNL1        0.0104
     12 C         139.3564  143.6436  160.6950 C.3     1  UNL1        0.0768
     13 C         140.3278  144.1546  159.6725 C.3     1  UNL1        0.0095
     14 C         141.4351  144.9587  159.0584 C.3     1  UNL1        0.0005
     15 C         140.7195  144.9990  160.8486 C.3     1  UNL1        0.0005
     16 C         140.3206  143.5893  158.2831 C.3     1  UNL1        0.0162
     17 N         139.3349  141.9480  156.5268 N.3     1  UNL1       -0.2962
     18 H         140.3098  141.8119  156.2592 H       1  UNL1        0.1235
     19 C         138.6818  142.7085  155.4111 C.3     1  UNL1        0.0768
     20 C         137.6323  142.0481  154.5671 C.3     1  UNL1        0.0220
     21 C         139.8709  146.9713  154.5959 C.ar    1  UNL1        0.1387
     22 C         140.8718  145.8675  154.4237 C.ar    1  UNL1        0.0366
     23 C         140.4754  144.4465  154.6955 C.ar    1  UNL1        0.0001
     24 C         139.0781  144.1295  155.1393 C.ar    1  UNL1       -0.0078
     25 C         138.0773  145.2333  155.3115 C.ar    1  UNL1        0.0001
     26 C         138.4736  146.6542  155.0398 C.ar    1  UNL1        0.0366
     27 C         139.3843  149.5170  154.7773 C.3     1  UNL1        0.2525
     28 O         140.2672  148.3923  154.3241 O.3     1  UNL1       -0.4714
     29 C         141.8460  140.5343  165.7144 C.2     1  UNL1        0.2286
     30 O         141.1556  139.4755  166.5222 O.2     1  UNL1       -0.2746
     31 N         143.2147  140.2788  165.1565 N.am    1  UNL1       -0.2793
     32 C         144.0137  139.0202  165.3227 C.3     1  UNL1        0.0935
     33 C         145.3176  139.2005  164.6034 C.3     1  UNL1        0.0233
     34 C         145.3244  140.5706  163.9927 C.3     1  UNL1        0.0233
     35 C         144.0248  141.2370  164.3346 C.3     1  UNL1        0.0935
     36 C         141.4103  141.9573  166.9406 C.ar    1  UNL1       -0.0145
     37 C         142.8012  142.1760  167.4578 C.ar    1  UNL1       -0.0038
     38 C         143.0440  142.2848  168.9341 C.ar    1  UNL1       -0.0003
     39 C         141.8959  142.1749  169.8931 C.ar    1  UNL1       -0.0000
     40 C         140.5050  141.9563  169.3759 C.ar    1  UNL1       -0.0003
     41 C         140.2621  141.8475  167.8997 C.ar    1  UNL1       -0.0038
@<TRIPOS>BOND
     1    27    28    1
     2    28    21    1
     3    21    22   ar
     4    22    23   ar
     5    23    24   ar
     6    24    19    1
     7    19    20    1
     8    19    17    1
     9     9    17    1
    10     9    10    1
    11    10    11    1
    12    11    12    1
    13    12     1    1
    14     1     2    2
    15     1     3   am
    16     3     4    1
    17     4     5    1
    18     5     6    1
    19     6    29    1
    20    29    30    2
    21    29    31   am
    22    31    32    1
    23    32    33    1
    24    33    34    1
    25    34    35    1
    26     6    36    1
    27    36    37   ar
    28    37    38   ar
    29    38    39   ar
    30    39    40   ar
    31    40    41   ar
    32     6     7    1
    33     7     8    1
    34    12    13    1
    35    13    14    1
    36    13    15    1
    37    13    16    1
    38    24    25   ar
    39    25    26   ar
    40    26    21   ar
    41    16     9    1
    42     8     3    1
    43    35    31    1
    44    41    36   ar
    45    17    18    1
