@<TRIPOS>MOLECULE
*****
 33 35 0 0 0
SMALL
GASTEIGER

@<TRIPOS>ATOM
      1 C         141.6860  139.1459  164.9013 C.2     1  UNL1        0.2495
      2 O         141.5779  137.7296  164.4192 O.2     1  UNL1       -0.2698
      3 N         142.1164  140.2288  163.9568 N.am    1  UNL1       -0.2794
      4 H         142.1873  141.1584  164.2732 H       1  UNL1        0.1552
      5 C         142.4387  139.8955  162.5303 C.ar    1  UNL1        0.0636
      6 C         141.3936  140.0605  161.4670 C.ar    1  UNL1        0.0164
      7 C         141.7159  139.7272  160.0404 C.ar    1  UNL1        0.0073
      8 C         143.0833  139.2287  159.6772 C.ar    1  UNL1        0.0018
      9 C         144.1283  139.0637  160.7406 C.ar    1  UNL1        0.0154
     10 C         143.8060  139.3971  162.1671 C.ar    1  UNL1        0.0552
     11 N         144.8510  139.2320  163.2304 N.pl3   1  UNL1       -0.3560
     12 H         145.7485  138.9049  162.9920 H       1  UNL1        0.1424
     13 H         144.6394  139.4508  164.1667 H       1  UNL1        0.1424
     14 C         140.6709  139.8922  158.9771 C.ar    1  UNL1        0.0295
     15 C         140.8931  139.7815  157.4978 C.ar    1  UNL1        0.0070
     16 C         139.5798  140.0178  156.8128 C.ar    1  UNL1        0.0075
     17 C         138.5458  140.2745  157.8688 C.ar    1  UNL1        0.0354
     18 S         139.2202  140.1969  159.2064 S.2     1  UNL1       -0.0864
     19 C         140.7190  140.1460  169.1808 C.ar    1  UNL1        0.0025
     20 C         142.1068  139.7181  168.8058 C.ar    1  UNL1       -0.0023
     21 C         142.4291  139.3847  167.3793 C.ar    1  UNL1        0.0043
     22 C         141.3636  139.4793  166.3278 C.ar    1  UNL1        0.0537
     23 C         139.9758  139.9072  166.7028 C.ar    1  UNL1        0.0043
     24 C         139.6534  140.2406  168.1294 C.ar    1  UNL1       -0.0023
     25 C         140.3966  140.4794  170.6074 C.3     1  UNL1        0.1740
     26 N         139.8309  139.4269  171.5141 N.3     1  UNL1       -0.3100
     27 H         139.6735  139.8247  172.4401 H       1  UNL1        0.1196
     28 H         140.4882  138.6502  171.5851 H       1  UNL1        0.1196
     29 C         140.6400  141.8652  171.1271 C.2     1  UNL1        0.3354
     30 O         139.4873  142.8035  171.3296 O.2     1  UNL1       -0.2482
     31 O         142.0361  142.3128  171.4445 O.3     1  UNL1       -0.4474
     32 C         144.1056  142.5134  169.8866 C.3     1  UNL1        0.0513
     33 C         142.8268  143.0811  170.4273 C.3     1  UNL1        0.2086
@<TRIPOS>BOND
     1    32    33    1
     2    33    31    1
     3    31    29    1
     4    29    30    2
     5    29    25    1
     6    25    26    1
     7    25    19    1
     8    19    20   ar
     9    20    21   ar
    10    21    22   ar
    11    22     1    1
    12     1     2    2
    13     1     3   am
    14     3     5    1
    15     5     6   ar
    16     6     7   ar
    17     7    14    1
    18    14    15   ar
    19    15    16   ar
    20    16    17   ar
    21    17    18   ar
    22     7     8   ar
    23     8     9   ar
    24     9    10   ar
    25    10    11    1
    26    22    23   ar
    27    23    24   ar
    28    24    19   ar
    29    10     5   ar
    30    18    14   ar
    31    26    27    1
    32    26    28    1
    33     3     4    1
    34    11    12    1
    35    11    13    1
@<TRIPOS>MOLECULE
*****
 33 35 0 0 0
SMALL
GASTEIGER

@<TRIPOS>ATOM
      1 C         140.4764  142.3383  164.2294 C.2     1  UNL1        0.2495
      2 O         141.5221  141.6658  163.3902 O.2     1  UNL1       -0.2698
      3 N         139.6120  143.4098  163.6341 N.am    1  UNL1       -0.2794
      4 H         138.9256  143.8512  164.1848 H       1  UNL1        0.1552
      5 C         139.7932  143.8089  162.1995 C.ar    1  UNL1        0.0636
      6 C         139.2101  142.9633  161.1063 C.ar    1  UNL1        0.0164
      7 C         139.3914  143.3624  159.6718 C.ar    1  UNL1        0.0073
      8 C         140.1558  144.6071  159.3305 C.ar    1  UNL1        0.0018
      9 C         140.7389  145.4527  160.4236 C.ar    1  UNL1        0.0154
     10 C         140.5576  145.0536  161.8582 C.ar    1  UNL1        0.0552
     11 N         141.1407  145.8991  162.9513 N.pl3   1  UNL1       -0.3560
     12 H         141.6424  146.7160  162.7273 H       1  UNL1        0.1424
     13 H         141.0217  145.6371  163.8928 H       1  UNL1        0.1424
     14 C         138.8083  142.5169  158.5787 C.ar    1  UNL1        0.0295
     15 C         138.2341  141.1405  158.7397 C.ar    1  UNL1        0.0070
     16 C         137.7679  140.6722  157.3931 C.ar    1  UNL1        0.0075
     17 C         138.0540  141.7593  156.3998 C.ar    1  UNL1        0.0354
     18 S         138.6969  142.8993  157.1325 S.2     1  UNL1       -0.0864
     19 C         139.9326  141.1410  168.5330 C.ar    1  UNL1        0.0025
     20 C         140.3359  142.5444  168.1902 C.ar    1  UNL1       -0.0023
     21 C         140.5172  142.9435  166.7556 C.ar    1  UNL1        0.0043
     22 C         140.2951  141.9392  165.6639 C.ar    1  UNL1        0.0537
     23 C         139.8918  140.5357  166.0067 C.ar    1  UNL1        0.0043
     24 C         139.7106  140.1366  167.4412 C.ar    1  UNL1       -0.0023
     25 C         139.7513  140.7419  169.9675 C.3     1  UNL1        0.1740
     26 N         138.5211  139.9939  170.3882 N.3     1  UNL1       -0.3100
     27 H         138.5634  139.8058  171.3898 H       1  UNL1        0.1196
     28 H         138.4685  139.1119  169.8785 H       1  UNL1        0.1196
     29 C         140.8003  141.0907  170.9813 C.2     1  UNL1        0.3354
     30 O         140.5249  142.1437  172.0136 O.2     1  UNL1       -0.2482
     31 O         142.1246  140.3866  170.9630 O.3     1  UNL1       -0.4474
     32 C         143.4023  142.3671  169.8697 C.3     1  UNL1        0.0513
     33 C         143.2310  140.8927  170.0855 C.3     1  UNL1        0.2086
@<TRIPOS>BOND
     1    32    33    1
     2    33    31    1
     3    31    29    1
     4    29    30    2
     5    29    25    1
     6    25    26    1
     7    25    19    1
     8    19    20   ar
     9    20    21   ar
    10    21    22   ar
    11    22     1    1
    12     1     2    2
    13     1     3   am
    14     3     5    1
    15     5     6   ar
    16     6     7   ar
    17     7    14    1
    18    14    15   ar
    19    15    16   ar
    20    16    17   ar
    21    17    18   ar
    22     7     8   ar
    23     8     9   ar
    24     9    10   ar
    25    10    11    1
    26    22    23   ar
    27    23    24   ar
    28    24    19   ar
    29    10     5   ar
    30    18    14   ar
    31    26    27    1
    32    26    28    1
    33     3     4    1
    34    11    12    1
    35    11    13    1
@<TRIPOS>MOLECULE
*****
 33 35 0 0 0
SMALL
GASTEIGER

@<TRIPOS>ATOM
      1 C         139.1171  140.7224  164.3327 C.2     1  UNL1        0.2495
      2 O         138.0674  139.8102  163.7707 O.2     1  UNL1       -0.2698
      3 N         139.9307  141.5852  163.4143 N.am    1  UNL1       -0.2794
      4 H         140.6197  142.1839  163.7831 H       1  UNL1        0.1552
      5 C         139.6945  141.5358  161.9338 C.ar    1  UNL1        0.0636
      6 C         140.4020  140.5130  161.0951 C.ar    1  UNL1        0.0164
      7 C         140.1657  140.4637  159.6146 C.ar    1  UNL1        0.0073
      8 C         139.2220  141.4372  158.9729 C.ar    1  UNL1        0.0018
      9 C         138.5145  142.4599  159.8116 C.ar    1  UNL1        0.0154
     10 C         138.7508  142.5092  161.2921 C.ar    1  UNL1        0.0552
     11 N         138.0433  143.5320  162.1308 N.pl3   1  UNL1       -0.3560
     12 H         137.4239  144.1709  161.7096 H       1  UNL1        0.1424
     13 H         138.1984  143.5643  163.1024 H       1  UNL1        0.1424
     14 C         140.8732  139.4410  158.7759 C.ar    1  UNL1        0.0295
     15 C         142.3587  139.2597  158.6731 C.ar    1  UNL1        0.0070
     16 C         142.6230  138.1266  157.7264 C.ar    1  UNL1        0.0075
     17 C         141.3008  137.6077  157.2440 C.ar    1  UNL1        0.0354
     18 S         140.2194  138.4200  157.8927 S.2     1  UNL1       -0.0864
     19 C         139.8259  140.8703  168.7741 C.ar    1  UNL1        0.0025
     20 C         140.3413  141.9712  167.8953 C.ar    1  UNL1       -0.0023
     21 C         140.1051  141.9218  166.4148 C.ar    1  UNL1        0.0043
     22 C         139.3534  140.7717  165.8132 C.ar    1  UNL1        0.0537
     23 C         138.8379  139.6708  166.6920 C.ar    1  UNL1        0.0043
     24 C         139.0742  139.7201  168.1725 C.ar    1  UNL1       -0.0023
     25 C         140.0621  140.9196  170.2546 C.3     1  UNL1        0.1740
     26 N         139.9545  139.6675  171.0733 N.3     1  UNL1       -0.3100
     27 H         140.1449  139.8837  172.0518 H       1  UNL1        0.1196
     28 H         140.6324  138.9829  170.7383 H       1  UNL1        0.1196
     29 C         140.4059  142.2211  170.9162 C.2     1  UNL1        0.3354
     30 O         139.3514  143.2728  171.0957 O.2     1  UNL1       -0.2482
     31 O         141.8041  142.4710  171.3984 O.3     1  UNL1       -0.4474
     32 C         143.6312  142.2293  169.5672 C.3     1  UNL1        0.0513
     33 C         142.8139  143.0940  170.4806 C.3     1  UNL1        0.2086
@<TRIPOS>BOND
     1    32    33    1
     2    33    31    1
     3    31    29    1
     4    29    30    2
     5    29    25    1
     6    25    26    1
     7    25    19    1
     8    19    20   ar
     9    20    21   ar
    10    21    22   ar
    11    22     1    1
    12     1     2    2
    13     1     3   am
    14     3     5    1
    15     5     6   ar
    16     6     7   ar
    17     7    14    1
    18    14    15   ar
    19    15    16   ar
    20    16    17   ar
    21    17    18   ar
    22     7     8   ar
    23     8     9   ar
    24     9    10   ar
    25    10    11    1
    26    22    23   ar
    27    23    24   ar
    28    24    19   ar
    29    10     5   ar
    30    18    14   ar
    31    26    27    1
    32    26    28    1
    33     3     4    1
    34    11    12    1
    35    11    13    1
@<TRIPOS>MOLECULE
*****
 33 35 0 0 0
SMALL
GASTEIGER

@<TRIPOS>ATOM
      1 C         143.0712  140.9479  164.4993 C.2     1  UNL1        0.2495
      2 O         143.9108  142.0359  163.8983 O.2     1  UNL1       -0.2698
      3 N         142.3348  139.9907  163.6097 N.am    1  UNL1       -0.2794
      4 H         141.7837  139.2766  164.0042 H       1  UNL1        0.1552
      5 C         142.4381  140.1215  162.1190 C.ar    1  UNL1        0.0636
      6 C         141.4299  140.9380  161.3661 C.ar    1  UNL1        0.0164
      7 C         141.5332  141.0687  159.8753 C.ar    1  UNL1        0.0073
      8 C         142.6447  140.3830  159.1375 C.ar    1  UNL1        0.0018
      9 C         143.6529  139.5665  159.8905 C.ar    1  UNL1        0.0154
     10 C         143.5496  139.4357  161.3812 C.ar    1  UNL1        0.0552
     11 N         144.5577  138.6193  162.1341 N.pl3   1  UNL1       -0.3560
     12 H         145.2872  138.1692  161.6499 H       1  UNL1        0.1424
     13 H         144.4899  138.5335  163.1125 H       1  UNL1        0.1424
     14 C         140.5250  141.8852  159.1224 C.ar    1  UNL1        0.0295
     15 C         140.7894  143.1842  158.4205 C.ar    1  UNL1        0.0070
     16 C         139.5032  143.6479  157.8035 C.ar    1  UNL1        0.0075
     17 C         138.4439  142.6354  158.1241 C.ar    1  UNL1        0.0354
     18 S         139.0754  141.5460  158.9392 S.2     1  UNL1       -0.0864
     19 C         142.7613  140.5557  168.9715 C.ar    1  UNL1        0.0025
     20 C         142.8405  141.9146  168.3415 C.ar    1  UNL1       -0.0023
     21 C         142.9437  142.0454  166.8508 C.ar    1  UNL1        0.0043
     22 C         142.9679  140.8172  165.9901 C.ar    1  UNL1        0.0537
     23 C         142.8887  139.4582  166.6200 C.ar    1  UNL1        0.0043
     24 C         142.7854  139.3275  168.1108 C.ar    1  UNL1       -0.0023
     25 C         142.6580  140.4249  170.4622 C.3     1  UNL1        0.1740
     26 N         143.7246  139.6989  171.2271 N.3     1  UNL1       -0.3100
     27 H         143.4951  139.7063  172.2209 H       1  UNL1        0.1196
     28 H         144.6219  140.1617  171.0819 H       1  UNL1        0.1196
     29 C         141.4881  141.0203  171.1880 C.2     1  UNL1        0.3354
     30 O         141.6633  142.2748  171.9915 O.2     1  UNL1       -0.2482
     31 O         140.1429  140.3611  171.1104 O.3     1  UNL1       -0.4474
     32 C         139.2631  140.0804  168.6820 C.3     1  UNL1        0.0513
     33 C         139.1815  140.7443  170.0246 C.3     1  UNL1        0.2086
@<TRIPOS>BOND
     1    32    33    1
     2    33    31    1
     3    31    29    1
     4    29    30    2
     5    29    25    1
     6    25    26    1
     7    25    19    1
     8    19    20   ar
     9    20    21   ar
    10    21    22   ar
    11    22     1    1
    12     1     2    2
    13     1     3   am
    14     3     5    1
    15     5     6   ar
    16     6     7   ar
    17     7    14    1
    18    14    15   ar
    19    15    16   ar
    20    16    17   ar
    21    17    18   ar
    22     7     8   ar
    23     8     9   ar
    24     9    10   ar
    25    10    11    1
    26    22    23   ar
    27    23    24   ar
    28    24    19   ar
    29    10     5   ar
    30    18    14   ar
    31    26    27    1
    32    26    28    1
    33     3     4    1
    34    11    12    1
    35    11    13    1
@<TRIPOS>MOLECULE
*****
 33 35 0 0 0
SMALL
GASTEIGER

@<TRIPOS>ATOM
      1 C         139.3095  140.7713  164.3563 C.2     1  UNL1        0.2495
      2 O         137.9295  140.7859  163.7686 O.2     1  UNL1       -0.2698
      3 N         140.5078  140.7237  163.4555 N.am    1  UNL1       -0.2794
      4 H         141.4136  140.7142  163.8412 H       1  UNL1        0.1552
      5 C         140.3262  140.6907  161.9669 C.ar    1  UNL1        0.0636
      6 C         140.3258  141.9696  161.1828 C.ar    1  UNL1        0.0164
      7 C         140.1442  141.9366  159.6942 C.ar    1  UNL1        0.0073
      8 C         139.9630  140.6247  158.9896 C.ar    1  UNL1        0.0018
      9 C         139.9635  139.3460  159.7737 C.ar    1  UNL1        0.0154
     10 C         140.1451  139.3790  161.2623 C.ar    1  UNL1        0.0552
     11 N         140.1456  138.1003  162.0463 N.pl3   1  UNL1       -0.3560
     12 H         140.0267  137.2393  161.5839 H       1  UNL1        0.1424
     13 H         140.2648  138.1219  163.0233 H       1  UNL1        0.1424
     14 C         140.1437  143.2153  158.9102 C.ar    1  UNL1        0.0295
     15 C         140.2888  144.5968  159.4764 C.ar    1  UNL1        0.0070
     16 C         140.2328  145.5724  158.3384 C.ar    1  UNL1        0.0075
     17 C         140.0531  144.7939  157.0689 C.ar    1  UNL1        0.0354
     18 S         139.9980  143.3372  157.4223 S.2     1  UNL1       -0.0864
     19 C         139.8543  140.8704  168.8221 C.ar    1  UNL1        0.0025
     20 C         140.3758  141.9951  167.9778 C.ar    1  UNL1       -0.0023
     21 C         140.1942  141.9621  166.4892 C.ar    1  UNL1        0.0043
     22 C         139.4911  140.8044  165.8449 C.ar    1  UNL1        0.0537
     23 C         138.9696  139.6796  166.6892 C.ar    1  UNL1        0.0043
     24 C         139.1512  139.7126  168.1778 C.ar    1  UNL1       -0.0023
     25 C         140.0359  140.9034  170.3107 C.3     1  UNL1        0.1740
     26 N         139.8786  139.6461  171.1135 N.3     1  UNL1       -0.3100
     27 H         140.0356  139.8509  172.1003 H       1  UNL1        0.1196
     28 H         140.5579  138.9538  170.7977 H       1  UNL1        0.1196
     29 C         140.3747  142.1936  170.9965 C.2     1  UNL1        0.3354
     30 O         139.3214  143.2463  171.1768 O.2     1  UNL1       -0.2482
     31 O         141.7668  142.4312  171.5021 O.3     1  UNL1       -0.4474
     32 C         143.6647  142.2449  169.7376 C.3     1  UNL1        0.0513
     33 C         142.7853  143.0848  170.6157 C.3     1  UNL1        0.2086
@<TRIPOS>BOND
     1    32    33    1
     2    33    31    1
     3    31    29    1
     4    29    30    2
     5    29    25    1
     6    25    26    1
     7    25    19    1
     8    19    20   ar
     9    20    21   ar
    10    21    22   ar
    11    22     1    1
    12     1     2    2
    13     1     3   am
    14     3     5    1
    15     5     6   ar
    16     6     7   ar
    17     7    14    1
    18    14    15   ar
    19    15    16   ar
    20    16    17   ar
    21    17    18   ar
    22     7     8   ar
    23     8     9   ar
    24     9    10   ar
    25    10    11    1
    26    22    23   ar
    27    23    24   ar
    28    24    19   ar
    29    10     5   ar
    30    18    14   ar
    31    26    27    1
    32    26    28    1
    33     3     4    1
    34    11    12    1
    35    11    13    1
@<TRIPOS>MOLECULE
*****
 33 35 0 0 0
SMALL
GASTEIGER

@<TRIPOS>ATOM
      1 C         141.5734  142.3250  164.4041 C.2     1  UNL1        0.2495
      2 O         142.6274  141.8997  163.4253 O.2     1  UNL1       -0.2698
      3 N         140.4255  143.1757  163.9475 N.am    1  UNL1       -0.2794
      4 H         139.7336  143.4549  164.5899 H       1  UNL1        0.1552
      5 C         140.3316  143.6012  162.5122 C.ar    1  UNL1        0.0636
      6 C         139.8051  142.6482  161.4803 C.ar    1  UNL1        0.0164
      7 C         139.7113  143.0737  160.0450 C.ar    1  UNL1        0.0073
      8 C         140.1439  144.4522  159.6416 C.ar    1  UNL1        0.0018
      9 C         140.6703  145.4051  160.6734 C.ar    1  UNL1        0.0154
     10 C         140.7642  144.9796  162.1087 C.ar    1  UNL1        0.0552
     11 N         141.2906  145.9325  163.1406 N.pl3   1  UNL1       -0.3560
     12 H         141.5745  146.8373  162.8758 H       1  UNL1        0.1424
     13 H         141.3522  145.6533  164.0826 H       1  UNL1        0.1424
     14 C         139.1849  142.1208  159.0131 C.ar    1  UNL1        0.0295
     15 C         139.5766  140.6808  158.8614 C.ar    1  UNL1        0.0070
     16 C         138.8081  140.1106  157.7063 C.ar    1  UNL1        0.0075
     17 C         137.9414  141.1982  157.1442 C.ar    1  UNL1        0.0354
     18 S         138.1742  142.4405  157.9518 S.2     1  UNL1       -0.0864
     19 C         141.8549  141.0485  168.7100 C.ar    1  UNL1        0.0025
     20 C         140.6371  140.7057  167.9043 C.ar    1  UNL1       -0.0023
     21 C         140.5432  141.1312  166.4689 C.ar    1  UNL1        0.0043
     22 C         141.6672  141.8995  165.8394 C.ar    1  UNL1        0.0537
     23 C         142.8851  142.2423  166.6452 C.ar    1  UNL1        0.0043
     24 C         142.9789  141.8168  168.0805 C.ar    1  UNL1       -0.0023
     25 C         141.9488  140.6230  170.1454 C.3     1  UNL1        0.1740
     26 N         143.2312  140.0549  170.6769 N.3     1  UNL1       -0.3100
     27 H         143.1167  139.8214  171.6632 H       1  UNL1        0.1196
     28 H         143.9764  140.7439  170.5749 H       1  UNL1        0.1196
     29 C         140.7602  140.7656  171.0492 C.2     1  UNL1        0.3354
     30 O         139.8883  139.5789  171.3345 O.2     1  UNL1       -0.2482
     31 O         140.4435  142.0950  171.6676 O.3     1  UNL1       -0.4474
     32 C         140.3714  144.0765  169.9887 C.3     1  UNL1        0.0513
     33 C         139.6609  143.1146  170.8943 C.3     1  UNL1        0.2086
@<TRIPOS>BOND
     1    32    33    1
     2    33    31    1
     3    31    29    1
     4    29    30    2
     5    29    25    1
     6    25    26    1
     7    25    19    1
     8    19    20   ar
     9    20    21   ar
    10    21    22   ar
    11    22     1    1
    12     1     2    2
    13     1     3   am
    14     3     5    1
    15     5     6   ar
    16     6     7   ar
    17     7    14    1
    18    14    15   ar
    19    15    16   ar
    20    16    17   ar
    21    17    18   ar
    22     7     8   ar
    23     8     9   ar
    24     9    10   ar
    25    10    11    1
    26    22    23   ar
    27    23    24   ar
    28    24    19   ar
    29    10     5   ar
    30    18    14   ar
    31    26    27    1
    32    26    28    1
    33     3     4    1
    34    11    12    1
    35    11    13    1
@<TRIPOS>MOLECULE
*****
 33 35 0 0 0
SMALL
GASTEIGER

@<TRIPOS>ATOM
      1 C         142.2149  142.1144  164.3816 C.2     1  UNL1        0.2495
      2 O         141.5969  140.9147  163.7268 O.2     1  UNL1       -0.2698
      3 N         142.9491  143.1262  163.5526 N.am    1  UNL1       -0.2794
      4 H         143.3548  143.9136  163.9824 H       1  UNL1        0.1552
      5 C         143.0653  142.9383  162.0690 C.ar    1  UNL1        0.0636
      6 C         142.3396  143.8627  161.1368 C.ar    1  UNL1        0.0164
      7 C         142.4558  143.6748  159.6532 C.ar    1  UNL1        0.0073
      8 C         143.2978  142.5624  159.1017 C.ar    1  UNL1        0.0018
      9 C         144.0234  141.6381  160.0339 C.ar    1  UNL1        0.0154
     10 C         143.9072  141.8260  161.5175 C.ar    1  UNL1        0.0552
     11 N         144.6328  140.9017  162.4497 N.pl3   1  UNL1       -0.3560
     12 H         145.1854  140.1717  162.0878 H       1  UNL1        0.1424
     13 H         144.5566  141.0250  163.4235 H       1  UNL1        0.1424
     14 C         141.7302  144.5991  158.7210 C.ar    1  UNL1        0.0295
     15 C         140.4133  145.2656  158.9883 C.ar    1  UNL1        0.0070
     16 C         140.0632  146.0977  157.7904 C.ar    1  UNL1        0.0075
     17 C         141.1638  145.9453  156.7826 C.ar    1  UNL1        0.0354
     18 S         142.1940  145.0192  157.3578 S.2     1  UNL1       -0.0864
     19 C         141.8663  142.6781  168.8325 C.ar    1  UNL1        0.0025
     20 C         140.6572  142.8379  167.9593 C.ar    1  UNL1       -0.0023
     21 C         140.7734  142.6500  166.4756 C.ar    1  UNL1        0.0043
     22 C         142.0987  142.3023  165.8652 C.ar    1  UNL1        0.0537
     23 C         143.3078  142.1426  166.7384 C.ar    1  UNL1        0.0043
     24 C         143.1916  142.3305  168.2220 C.ar    1  UNL1       -0.0023
     25 C         141.7501  142.8660  170.3161 C.3     1  UNL1        0.1740
     26 N         142.8818  143.4804  171.0852 N.3     1  UNL1       -0.3100
     27 H         142.6334  143.5314  172.0732 H       1  UNL1        0.1196
     28 H         143.0630  144.4198  170.7313 H       1  UNL1        0.1196
     29 C         140.5021  142.4396  171.0306 C.2     1  UNL1        0.3354
     30 O         139.3575  143.3979  171.1781 O.2     1  UNL1       -0.2482
     31 O         140.3986  141.0548  171.5977 O.3     1  UNL1       -0.4474
     32 C         138.9896  140.1101  169.6299 C.3     1  UNL1        0.0513
     33 C         140.0087  139.9087  170.7118 C.3     1  UNL1        0.2086
@<TRIPOS>BOND
     1    32    33    1
     2    33    31    1
     3    31    29    1
     4    29    30    2
     5    29    25    1
     6    25    26    1
     7    25    19    1
     8    19    20   ar
     9    20    21   ar
    10    21    22   ar
    11    22     1    1
    12     1     2    2
    13     1     3   am
    14     3     5    1
    15     5     6   ar
    16     6     7   ar
    17     7    14    1
    18    14    15   ar
    19    15    16   ar
    20    16    17   ar
    21    17    18   ar
    22     7     8   ar
    23     8     9   ar
    24     9    10   ar
    25    10    11    1
    26    22    23   ar
    27    23    24   ar
    28    24    19   ar
    29    10     5   ar
    30    18    14   ar
    31    26    27    1
    32    26    28    1
    33     3     4    1
    34    11    12    1
    35    11    13    1
@<TRIPOS>MOLECULE
*****
 33 35 0 0 0
SMALL
GASTEIGER

@<TRIPOS>ATOM
      1 C         140.1805  139.3369  164.8014 C.2     1  UNL1        0.2495
      2 O         139.6284  137.9690  164.5293 O.2     1  UNL1       -0.2698
      3 N         140.1237  140.3936  163.7383 N.am    1  UNL1       -0.2794
      4 H         140.4860  141.2914  163.9168 H       1  UNL1        0.1552
      5 C         139.5148  140.0824  162.4032 C.ar    1  UNL1        0.0636
      6 C         140.3528  139.4671  161.3218 C.ar    1  UNL1        0.0164
      7 C         139.7440  139.1559  159.9868 C.ar    1  UNL1        0.0073
      8 C         138.2972  139.4599  159.7330 C.ar    1  UNL1        0.0018
      9 C         137.4592  140.0752  160.8144 C.ar    1  UNL1        0.0154
     10 C         138.0681  140.3864  162.1495 C.ar    1  UNL1        0.0552
     11 N         137.2302  141.0016  163.2308 N.pl3   1  UNL1       -0.3560
     12 H         136.2806  141.2012  163.0643 H       1  UNL1        0.1424
     13 H         137.6298  141.2059  164.1071 H       1  UNL1        0.1424
     14 C         140.5819  138.5407  158.9054 C.ar    1  UNL1        0.0295
     15 C         140.0778  137.9947  157.6024 C.ar    1  UNL1        0.0070
     16 C         141.2554  137.4800  156.8289 C.ar    1  UNL1        0.0075
     17 C         142.4873  137.7079  157.6539 C.ar    1  UNL1        0.0354
     18 S         142.0710  138.3634  158.9372 S.2     1  UNL1       -0.0864
     19 C         142.0070  140.2706  168.8066 C.ar    1  UNL1        0.0025
     20 C         140.5246  140.0768  168.6852 C.ar    1  UNL1       -0.0023
     21 C         139.9157  139.7656  167.3501 C.ar    1  UNL1        0.0043
     22 C         140.7893  139.6482  166.1364 C.ar    1  UNL1        0.0537
     23 C         142.2717  139.8420  166.2579 C.ar    1  UNL1        0.0043
     24 C         142.8806  140.1532  167.5930 C.ar    1  UNL1       -0.0023
     25 C         142.6158  140.5818  170.1417 C.3     1  UNL1        0.1740
     26 N         143.2504  139.4890  170.9497 N.3     1  UNL1       -0.3100
     27 H         143.6101  139.8762  171.8221 H       1  UNL1        0.1196
     28 H         144.0174  139.0756  170.4194 H       1  UNL1        0.1196
     29 C         142.5901  141.9859  170.6688 C.2     1  UNL1        0.3354
     30 O         143.7133  142.9276  170.3497 O.2     1  UNL1       -0.2482
     31 O         141.4411  142.4484  171.5150 O.3     1  UNL1       -0.4474
     32 C         140.2083  143.8475  169.7058 C.3     1  UNL1        0.0513
     33 C         140.1655  142.8983  170.8665 C.3     1  UNL1        0.2086
@<TRIPOS>BOND
     1    32    33    1
     2    33    31    1
     3    31    29    1
     4    29    30    2
     5    29    25    1
     6    25    26    1
     7    25    19    1
     8    19    20   ar
     9    20    21   ar
    10    21    22   ar
    11    22     1    1
    12     1     2    2
    13     1     3   am
    14     3     5    1
    15     5     6   ar
    16     6     7   ar
    17     7    14    1
    18    14    15   ar
    19    15    16   ar
    20    16    17   ar
    21    17    18   ar
    22     7     8   ar
    23     8     9   ar
    24     9    10   ar
    25    10    11    1
    26    22    23   ar
    27    23    24   ar
    28    24    19   ar
    29    10     5   ar
    30    18    14   ar
    31    26    27    1
    32    26    28    1
    33     3     4    1
    34    11    12    1
    35    11    13    1
@<TRIPOS>MOLECULE
*****
 33 35 0 0 0
SMALL
GASTEIGER

@<TRIPOS>ATOM
      1 C         140.7975  140.0974  164.0945 C.2     1  UNL1        0.2495
      2 O         140.1644  141.3030  163.4655 O.2     1  UNL1       -0.2698
      3 N         141.2308  138.9449  163.2378 N.am    1  UNL1       -0.2794
      4 H         141.6464  138.1537  163.6506 H       1  UNL1        0.1552
      5 C         141.0310  138.9981  161.7521 C.ar    1  UNL1        0.0636
      6 C         142.0596  139.6549  160.8800 C.ar    1  UNL1        0.0164
      7 C         141.8598  139.7080  159.3943 C.ar    1  UNL1        0.0073
      8 C         140.6313  139.1043  158.7808 C.ar    1  UNL1        0.0018
      9 C         139.6028  138.4475  159.6528 C.ar    1  UNL1        0.0154
     10 C         139.8026  138.3944  161.1385 C.ar    1  UNL1        0.0552
     11 N         138.7740  137.7375  162.0106 N.pl3   1  UNL1       -0.3560
     12 H         137.9678  137.3413  161.6079 H       1  UNL1        0.1424
     13 H         138.9052  137.7027  162.9857 H       1  UNL1        0.1424
     14 C         142.8884  140.3649  158.5222 C.ar    1  UNL1        0.0295
     15 C         143.5551  141.6827  158.7846 C.ar    1  UNL1        0.0070
     16 C         144.5096  141.9515  157.6592 C.ar    1  UNL1        0.0075
     17 C         144.4328  140.7997  156.7012 C.ar    1  UNL1        0.0354
     18 S         143.4308  139.8192  157.2346 S.2     1  UNL1       -0.0864
     19 C         141.3970  139.9380  168.5515 C.ar    1  UNL1        0.0025
     20 C         142.5585  139.7109  167.6300 C.ar    1  UNL1       -0.0023
     21 C         142.3587  139.7640  166.1443 C.ar    1  UNL1        0.0043
     22 C         140.9974  140.0443  165.5802 C.ar    1  UNL1        0.0537
     23 C         139.8359  140.2714  166.5018 C.ar    1  UNL1        0.0043
     24 C         140.0357  140.2183  167.9874 C.ar    1  UNL1       -0.0023
     25 C         141.5969  139.8849  170.0372 C.3     1  UNL1        0.1740
     26 N         142.9031  139.4105  170.6018 N.3     1  UNL1       -0.3100
     27 H         142.8636  139.4393  171.6206 H       1  UNL1        0.1196
     28 H         143.6554  140.0160  170.2735 H       1  UNL1        0.1196
     29 C         140.4906  140.3062  170.9583 C.2     1  UNL1        0.3354
     30 O         139.3918  139.3439  171.3002 O.2     1  UNL1       -0.2482
     31 O         140.4829  141.6898  171.5376 O.3     1  UNL1       -0.4474
     32 C         140.5810  143.6043  169.7839 C.3     1  UNL1        0.0513
     33 C         139.8125  142.8091  170.7974 C.3     1  UNL1        0.2086
@<TRIPOS>BOND
     1    32    33    1
     2    33    31    1
     3    31    29    1
     4    29    30    2
     5    29    25    1
     6    25    26    1
     7    25    19    1
     8    19    20   ar
     9    20    21   ar
    10    21    22   ar
    11    22     1    1
    12     1     2    2
    13     1     3   am
    14     3     5    1
    15     5     6   ar
    16     6     7   ar
    17     7    14    1
    18    14    15   ar
    19    15    16   ar
    20    16    17   ar
    21    17    18   ar
    22     7     8   ar
    23     8     9   ar
    24     9    10   ar
    25    10    11    1
    26    22    23   ar
    27    23    24   ar
    28    24    19   ar
    29    10     5   ar
    30    18    14   ar
    31    26    27    1
    32    26    28    1
    33     3     4    1
    34    11    12    1
    35    11    13    1
