@<TRIPOS>MOLECULE
*****
 31 34 0 0 0
SMALL
GASTEIGER

@<TRIPOS>ATOM
      1 N         139.8216  138.9242  160.6637 N.3     1  UNL1       -0.2700
      2 C         139.4364  139.2231  159.2451 C.3     1  UNL1        0.0724
      3 C         138.1572  140.0062  159.2673 C.3     1  UNL1        0.0191
      4 C         137.7519  140.1912  160.6996 C.3     1  UNL1        0.0219
      5 C         138.7805  139.5225  161.5626 C.3     1  UNL1        0.0801
      6 C         138.7699  139.4626  163.0614 C.ar    1  UNL1       -0.0078
      7 C         138.9165  138.1434  163.7603 C.ar    1  UNL1       -0.0030
      8 C         138.9059  138.0835  165.2591 C.ar    1  UNL1       -0.0003
      9 C         138.7486  139.3428  166.0589 C.ar    1  UNL1        0.0001
     10 C         138.6020  140.6618  165.3600 C.ar    1  UNL1       -0.0003
     11 C         138.6127  140.7217  163.8612 C.ar    1  UNL1       -0.0030
     12 C         138.7380  139.2829  167.5577 C.2     1  UNL1        0.0047
     13 C         139.4579  140.3295  168.3552 C.2     1  UNL1        0.0598
     14 C         139.4473  140.2696  169.8540 C.2     1  UNL1        0.2679
     15 O         138.2080  139.8346  170.5785 O.2     1  UNL1       -0.2681
     16 N         140.6761  140.6448  170.6283 N.am    1  UNL1       -0.1934
     17 O         140.6654  140.5849  172.1271 O.3     1  UNL1       -0.2949
     18 H         141.4895  140.9304  170.1528 H       1  UNL1        0.1825
     19 H         139.7944  140.2868  172.4326 H       1  UNL1        0.2414
     20 C         141.0349  138.1609  161.1056 C.3     1  UNL1        0.0771
     21 C         142.2786  138.8969  161.5079 C.3     1  UNL1        0.0446
     22 C         141.7000  142.0652  160.9819 C.3     1  UNL1        0.0517
     23 C         141.9447  141.4231  162.3153 C.2     1  UNL1        0.0551
     24 N         141.9665  142.1246  163.6410 N.2     1  UNL1       -0.2503
     25 C         142.2459  141.1018  164.7021 C.2     1  UNL1        0.0770
     26 C         142.3824  141.2126  166.1917 C.2     1  UNL1        0.0184
     27 C         142.6698  139.9898  167.0114 C.2     1  UNL1       -0.0027
     28 C         142.8208  138.6562  166.3415 C.2     1  UNL1       -0.0213
     29 C         142.6843  138.5454  164.8519 C.3     1  UNL1        0.0535
     30 C         142.3968  139.7683  164.0322 C.2     1  UNL1       -0.0030
     31 C         142.2107  139.9668  162.5571 C.2     1  UNL1       -0.0094
@<TRIPOS>BOND
     1    22    23    1
     2    23    24    2
     3    24    25    1
     4    25    26    2
     5    26    27    1
     6    27    28    2
     7    28    29    1
     8    29    30    1
     9    30    31    2
    10    31    21    1
    11    21    20    1
    12    20     1    1
    13     1     2    1
    14     2     3    1
    15     3     4    1
    16     4     5    1
    17     5     6    1
    18     6     7   ar
    19     7     8   ar
    20     8     9   ar
    21     9    12    1
    22    12    13    2
    23    13    14    1
    24    14    15    2
    25    14    16   am
    26    16    17    1
    27     9    10   ar
    28    10    11   ar
    29    31    23    1
    30     5     1    1
    31    11     6   ar
    32    30    25    1
    33    16    18    1
    34    17    19    1
@<TRIPOS>MOLECULE
*****
 31 34 0 0 0
SMALL
GASTEIGER

@<TRIPOS>ATOM
      1 N         140.9467  143.5923  161.4887 N.3     1  UNL1       -0.2700
      2 C         140.3948  144.5754  160.4993 C.3     1  UNL1        0.0724
      3 C         140.0607  145.8378  161.2373 C.3     1  UNL1        0.0191
      4 C         140.4060  145.6349  162.6828 C.3     1  UNL1        0.0219
      5 C         140.9536  144.2471  162.8382 C.3     1  UNL1        0.0801
      6 C         141.4253  143.6235  164.1184 C.ar    1  UNL1       -0.0078
      7 C         140.4351  143.2602  165.1850 C.ar    1  UNL1       -0.0030
      8 C         140.9068  142.6366  166.4651 C.ar    1  UNL1       -0.0003
      9 C         142.3686  142.3765  166.6786 C.ar    1  UNL1        0.0001
     10 C         143.3586  142.7399  165.6120 C.ar    1  UNL1       -0.0003
     11 C         142.8870  143.3634  164.3319 C.ar    1  UNL1       -0.0030
     12 C         142.8403  141.7530  167.9588 C.2     1  UNL1        0.0047
     13 C         141.9205  141.6812  169.1415 C.2     1  UNL1        0.0598
     14 C         142.3922  141.0577  170.4216 C.2     1  UNL1        0.2679
     15 O         141.7170  141.4007  171.7163 O.2     1  UNL1       -0.2681
     16 N         143.5392  140.0911  170.4070 N.am    1  UNL1       -0.1934
     17 O         144.0109  139.4675  171.6871 O.3     1  UNL1       -0.2949
     18 H         143.9824  139.8659  169.5572 H       1  UNL1        0.1825
     19 H         143.4711  139.7941  172.4240 H       1  UNL1        0.2414
     20 C         141.4103  142.1990  161.1824 C.3     1  UNL1        0.0771
     21 C         140.5014  141.0331  161.4373 C.3     1  UNL1        0.0446
     22 C         137.7892  140.6543  163.2122 C.3     1  UNL1        0.0517
     23 C         139.1754  140.2557  163.6241 C.2     1  UNL1        0.0551
     24 N         139.5583  139.6130  164.9242 N.2     1  UNL1       -0.2503
     25 C         141.0415  139.3899  164.9120 C.2     1  UNL1        0.0770
     26 C         141.9750  138.7923  165.9226 C.2     1  UNL1        0.0184
     27 C         143.4423  138.6995  165.6255 C.2     1  UNL1       -0.0027
     28 C         143.9762  139.2043  164.3178 C.2     1  UNL1       -0.0213
     29 C         143.0427  139.8019  163.3071 C.3     1  UNL1        0.0535
     30 C         141.5754  139.8947  163.6042 C.2     1  UNL1       -0.0030
     31 C         140.4220  140.4298  162.8083 C.2     1  UNL1       -0.0094
@<TRIPOS>BOND
     1    22    23    1
     2    23    24    2
     3    24    25    1
     4    25    26    2
     5    26    27    1
     6    27    28    2
     7    28    29    1
     8    29    30    1
     9    30    31    2
    10    31    21    1
    11    21    20    1
    12    20     1    1
    13     1     2    1
    14     2     3    1
    15     3     4    1
    16     4     5    1
    17     5     6    1
    18     6     7   ar
    19     7     8   ar
    20     8     9   ar
    21     9    12    1
    22    12    13    2
    23    13    14    1
    24    14    15    2
    25    14    16   am
    26    16    17    1
    27     9    10   ar
    28    10    11   ar
    29    31    23    1
    30     5     1    1
    31    11     6   ar
    32    30    25    1
    33    16    18    1
    34    17    19    1
@<TRIPOS>MOLECULE
*****
 31 34 0 0 0
SMALL
GASTEIGER

@<TRIPOS>ATOM
      1 N         142.3305  140.2775  166.5239 N.3     1  UNL1       -0.2700
      2 C         142.9189  139.0536  167.1609 C.3     1  UNL1        0.0724
      3 C         143.7317  138.3366  166.1240 C.3     1  UNL1        0.0191
      4 C         143.6457  139.1175  164.8461 C.3     1  UNL1        0.0219
      5 C         142.7796  140.3170  165.0933 C.3     1  UNL1        0.0801
      6 C         142.4250  141.3710  164.0866 C.ar    1  UNL1       -0.0078
      7 C         141.5750  141.0204  162.9014 C.ar    1  UNL1       -0.0030
      8 C         141.2204  142.0743  161.8947 C.ar    1  UNL1       -0.0003
      9 C         141.7159  143.4789  162.0732 C.ar    1  UNL1        0.0001
     10 C         142.5658  143.8295  163.2584 C.ar    1  UNL1       -0.0003
     11 C         142.9204  142.7755  164.2651 C.ar    1  UNL1       -0.0030
     12 C         141.3613  144.5329  161.0665 C.2     1  UNL1        0.0047
     13 C         141.8485  144.4140  159.6529 C.2     1  UNL1        0.0598
     14 C         141.4939  145.4680  158.6462 C.2     1  UNL1        0.2679
     15 O         142.5783  146.1909  157.9036 O.2     1  UNL1       -0.2681
     16 N         140.0549  145.7991  158.3822 N.am    1  UNL1       -0.1934
     17 O         139.7003  146.8530  157.3755 O.3     1  UNL1       -0.2949
     18 H         139.3432  145.3246  158.8697 H       1  UNL1        0.1825
     19 H         140.5121  147.2181  156.9901 H       1  UNL1        0.2414
     20 C         141.4478  141.2851  167.1990 C.3     1  UNL1        0.0771
     21 C         139.9600  141.0940  167.2054 C.3     1  UNL1        0.0446
     22 C         138.4481  138.6123  165.7205 C.3     1  UNL1        0.0517
     23 C         138.4932  140.0322  165.2391 C.2     1  UNL1        0.0551
     24 N         137.8513  140.5608  163.9907 N.2     1  UNL1       -0.2503
     25 C         138.1496  142.0282  163.9016 C.2     1  UNL1        0.0770
     26 C         137.7756  143.0687  162.8881 C.2     1  UNL1        0.0184
     27 C         138.2278  144.4875  163.0679 C.2     1  UNL1       -0.0027
     28 C         139.0540  144.8658  164.2613 C.2     1  UNL1       -0.0213
     29 C         139.4280  143.8253  165.2749 C.3     1  UNL1        0.0535
     30 C         138.9758  142.4065  165.0951 C.2     1  UNL1       -0.0030
     31 C         139.1881  141.1729  165.9217 C.2     1  UNL1       -0.0094
@<TRIPOS>BOND
     1    22    23    1
     2    23    24    2
     3    24    25    1
     4    25    26    2
     5    26    27    1
     6    27    28    2
     7    28    29    1
     8    29    30    1
     9    30    31    2
    10    31    21    1
    11    21    20    1
    12    20     1    1
    13     1     2    1
    14     2     3    1
    15     3     4    1
    16     4     5    1
    17     5     6    1
    18     6     7   ar
    19     7     8   ar
    20     8     9   ar
    21     9    12    1
    22    12    13    2
    23    13    14    1
    24    14    15    2
    25    14    16   am
    26    16    17    1
    27     9    10   ar
    28    10    11   ar
    29    31    23    1
    30     5     1    1
    31    11     6   ar
    32    30    25    1
    33    16    18    1
    34    17    19    1
@<TRIPOS>MOLECULE
*****
 31 34 0 0 0
SMALL
GASTEIGER

@<TRIPOS>ATOM
      1 N         142.5997  142.0609  161.6855 N.3     1  UNL1       -0.2700
      2 C         143.6058  142.4529  160.6443 C.3     1  UNL1        0.0724
      3 C         144.9718  142.3383  161.2533 C.3     1  UNL1        0.0191
      4 C         144.8099  141.8756  162.6710 C.3     1  UNL1        0.0219
      5 C         143.3439  141.7041  162.9381 C.3     1  UNL1        0.0801
      6 C         142.7299  141.2547  164.2308 C.ar    1  UNL1       -0.0078
      7 C         141.8459  142.1869  165.0052 C.ar    1  UNL1       -0.0030
      8 C         141.2318  141.7376  166.2979 C.ar    1  UNL1       -0.0003
      9 C         141.5018  140.3560  166.8161 C.ar    1  UNL1        0.0001
     10 C         142.3858  139.4239  166.0417 C.ar    1  UNL1       -0.0003
     11 C         142.9998  139.8733  164.7490 C.ar    1  UNL1       -0.0030
     12 C         140.8878  139.9066  168.1088 C.2     1  UNL1        0.0047
     13 C         139.7761  140.7013  168.7273 C.2     1  UNL1        0.0598
     14 C         139.1621  140.2520  170.0200 C.2     1  UNL1        0.2679
     15 O         139.8626  140.5250  171.3179 O.2     1  UNL1       -0.2681
     16 N         137.8475  139.5295  170.0147 N.am    1  UNL1       -0.1934
     17 O         137.2335  139.0802  171.3074 O.3     1  UNL1       -0.2949
     18 H         137.3877  139.3503  169.1628 H       1  UNL1        0.1825
     19 H         137.8104  139.3337  172.0448 H       1  UNL1        0.2414
     20 C         141.1108  142.0310  161.5058 C.3     1  UNL1        0.0771
     21 C         140.4368  140.7748  161.0391 C.3     1  UNL1        0.0446
     22 C         142.0911  138.0185  160.4773 C.3     1  UNL1        0.0517
     23 C         141.1990  138.2874  161.6529 C.2     1  UNL1        0.0551
     24 N         140.9107  137.3366  162.7766 N.2     1  UNL1       -0.2503
     25 C         139.9722  138.0159  163.7294 C.2     1  UNL1        0.0770
     26 C         139.3455  137.5634  165.0149 C.2     1  UNL1        0.0184
     27 C         138.4271  138.4816  165.7654 C.2     1  UNL1       -0.0027
     28 C         138.1353  139.8523  165.2305 C.2     1  UNL1       -0.0213
     29 C         138.7620  140.3047  163.9450 C.3     1  UNL1        0.0535
     30 C         139.6804  139.3865  163.1944 C.2     1  UNL1       -0.0030
     31 C         140.4386  139.5543  161.9111 C.2     1  UNL1       -0.0094
@<TRIPOS>BOND
     1    22    23    1
     2    23    24    2
     3    24    25    1
     4    25    26    2
     5    26    27    1
     6    27    28    2
     7    28    29    1
     8    29    30    1
     9    30    31    2
    10    31    21    1
    11    21    20    1
    12    20     1    1
    13     1     2    1
    14     2     3    1
    15     3     4    1
    16     4     5    1
    17     5     6    1
    18     6     7   ar
    19     7     8   ar
    20     8     9   ar
    21     9    12    1
    22    12    13    2
    23    13    14    1
    24    14    15    2
    25    14    16   am
    26    16    17    1
    27     9    10   ar
    28    10    11   ar
    29    31    23    1
    30     5     1    1
    31    11     6   ar
    32    30    25    1
    33    16    18    1
    34    17    19    1
@<TRIPOS>MOLECULE
*****
 31 34 0 0 0
SMALL
GASTEIGER

@<TRIPOS>ATOM
      1 N         139.4184  143.4157  160.9368 N.3     1  UNL1       -0.2700
      2 C         139.6954  144.0017  159.5841 C.3     1  UNL1        0.0724
      3 C         140.9367  144.8375  159.6864 C.3     1  UNL1        0.0191
      4 C         141.4269  144.7679  161.1023 C.3     1  UNL1        0.0219
      5 C         140.4885  143.8892  161.8751 C.3     1  UNL1        0.0801
      6 C         140.6006  143.5445  163.3307 C.ar    1  UNL1       -0.0078
      7 C         141.7882  142.7762  163.8302 C.ar    1  UNL1       -0.0030
      8 C         141.9003  142.4315  165.2857 C.ar    1  UNL1       -0.0003
      9 C         140.8248  142.8552  166.2418 C.ar    1  UNL1        0.0001
     10 C         139.6373  143.6235  165.7423 C.ar    1  UNL1       -0.0003
     11 C         139.5253  143.9682  164.2867 C.ar    1  UNL1       -0.0030
     12 C         140.9369  142.5106  167.6973 C.2     1  UNL1        0.0047
     13 C         140.3850  143.4439  168.7338 C.2     1  UNL1        0.0598
     14 C         140.4971  143.0993  170.1893 C.2     1  UNL1        0.2679
     15 O         139.3019  143.2323  171.0858 O.2     1  UNL1       -0.2681
     16 N         141.8045  142.6215  170.7484 N.am    1  UNL1       -0.1934
     17 O         141.9166  142.2768  172.2040 O.3     1  UNL1       -0.2949
     18 H         142.5890  142.5342  170.1600 H       1  UNL1        0.1825
     19 H         141.0599  142.4176  172.6365 H       1  UNL1        0.2414
     20 C         138.2724  142.5143  161.2892 C.3     1  UNL1        0.0771
     21 C         138.4315  141.0258  161.1921 C.3     1  UNL1        0.0446
     22 C         141.2914  139.8008  160.2072 C.3     1  UNL1        0.0517
     23 C         140.7480  139.7576  161.6047 C.2     1  UNL1        0.0551
     24 N         141.4238  139.1437  162.7948 N.2     1  UNL1       -0.2503
     25 C         140.5269  139.3273  163.9831 C.2     1  UNL1        0.0770
     26 C         140.6713  138.9261  165.4212 C.2     1  UNL1        0.0184
     27 C         139.5857  139.2524  166.4035 C.2     1  UNL1       -0.0027
     28 C         138.3557  139.9798  165.9477 C.2     1  UNL1       -0.0213
     29 C         138.2112  140.3810  164.5096 C.3     1  UNL1        0.0535
     30 C         139.2968  140.0547  163.5273 C.2     1  UNL1       -0.0030
     31 C         139.4335  140.3206  162.0574 C.2     1  UNL1       -0.0094
@<TRIPOS>BOND
     1    22    23    1
     2    23    24    2
     3    24    25    1
     4    25    26    2
     5    26    27    1
     6    27    28    2
     7    28    29    1
     8    29    30    1
     9    30    31    2
    10    31    21    1
    11    21    20    1
    12    20     1    1
    13     1     2    1
    14     2     3    1
    15     3     4    1
    16     4     5    1
    17     5     6    1
    18     6     7   ar
    19     7     8   ar
    20     8     9   ar
    21     9    12    1
    22    12    13    2
    23    13    14    1
    24    14    15    2
    25    14    16   am
    26    16    17    1
    27     9    10   ar
    28    10    11   ar
    29    31    23    1
    30     5     1    1
    31    11     6   ar
    32    30    25    1
    33    16    18    1
    34    17    19    1
@<TRIPOS>MOLECULE
*****
 31 34 0 0 0
SMALL
GASTEIGER

@<TRIPOS>ATOM
      1 N         141.2859  143.7093  161.4344 N.3     1  UNL1       -0.2700
      2 C         141.0151  144.6683  160.3133 C.3     1  UNL1        0.0724
      3 C         140.3498  145.8818  160.8919 C.3     1  UNL1        0.0191
      4 C         140.2093  145.6727  162.3706 C.3     1  UNL1        0.0219
      5 C         140.7878  144.3300  162.7059 C.3     1  UNL1        0.0801
      6 C         140.8563  143.7158  164.0727 C.ar    1  UNL1       -0.0078
      7 C         142.1571  143.1740  164.5872 C.ar    1  UNL1       -0.0030
      8 C         142.2256  142.5599  165.9540 C.ar    1  UNL1       -0.0003
      9 C         140.9933  142.4875  166.8063 C.ar    1  UNL1        0.0001
     10 C         139.6926  143.0293  166.2918 C.ar    1  UNL1       -0.0003
     11 C         139.6242  143.6434  164.9250 C.ar    1  UNL1       -0.0030
     12 C         141.0618  141.8734  168.1731 C.2     1  UNL1        0.0047
     13 C         141.3040  142.7397  169.3733 C.2     1  UNL1        0.0598
     14 C         141.3725  142.1256  170.7401 C.2     1  UNL1        0.2679
     15 O         140.3237  142.4509  171.7619 O.2     1  UNL1       -0.2681
     16 N         142.4899  141.1861  171.0851 N.am    1  UNL1       -0.1934
     17 O         142.5583  140.5719  172.4519 O.3     1  UNL1       -0.2949
     18 H         143.1782  140.9726  170.4144 H       1  UNL1        0.1825
     19 H         141.8106  140.8848  172.9847 H       1  UNL1        0.2414
     20 C         141.9398  142.3654  161.3065 C.3     1  UNL1        0.0771
     21 C         141.0982  141.1259  161.2314 C.3     1  UNL1        0.0446
     22 C         138.1016  142.2454  160.5860 C.3     1  UNL1        0.0517
     23 C         138.5168  141.4968  161.8177 C.2     1  UNL1        0.0551
     24 N         137.6276  141.1313  162.9691 N.2     1  UNL1       -0.2503
     25 C         138.4553  140.3909  163.9773 C.2     1  UNL1        0.0770
     26 C         138.1145  139.7887  165.3081 C.2     1  UNL1        0.0184
     27 C         139.1745  139.0943  166.1107 C.2     1  UNL1       -0.0027
     28 C         140.5754  139.0021  165.5825 C.2     1  UNL1       -0.0213
     29 C         140.9162  139.6043  164.2517 C.3     1  UNL1        0.0535
     30 C         139.8562  140.2987  163.4491 C.2     1  UNL1       -0.0030
     31 C         139.8942  140.9822  162.1144 C.2     1  UNL1       -0.0094
@<TRIPOS>BOND
     1    22    23    1
     2    23    24    2
     3    24    25    1
     4    25    26    2
     5    26    27    1
     6    27    28    2
     7    28    29    1
     8    29    30    1
     9    30    31    2
    10    31    21    1
    11    21    20    1
    12    20     1    1
    13     1     2    1
    14     2     3    1
    15     3     4    1
    16     4     5    1
    17     5     6    1
    18     6     7   ar
    19     7     8   ar
    20     8     9   ar
    21     9    12    1
    22    12    13    2
    23    13    14    1
    24    14    15    2
    25    14    16   am
    26    16    17    1
    27     9    10   ar
    28    10    11   ar
    29    31    23    1
    30     5     1    1
    31    11     6   ar
    32    30    25    1
    33    16    18    1
    34    17    19    1
@<TRIPOS>MOLECULE
*****
 31 34 0 0 0
SMALL
GASTEIGER

@<TRIPOS>ATOM
      1 N         141.3734  138.7861  160.4160 N.3     1  UNL1       -0.2700
      2 C         141.9749  138.8245  159.0424 C.3     1  UNL1        0.0724
      3 C         143.3593  139.3901  159.1583 C.3     1  UNL1        0.0191
      4 C         143.6135  139.7011  160.6035 C.3     1  UNL1        0.0219
      5 C         142.3861  139.3278  161.3808 C.3     1  UNL1        0.0801
      6 C         142.2035  139.4712  162.8627 C.ar    1  UNL1       -0.0078
      7 C         141.7922  140.7917  163.4435 C.ar    1  UNL1       -0.0030
      8 C         141.6096  140.9350  164.9254 C.ar    1  UNL1       -0.0003
      9 C         141.8383  139.7578  165.8266 C.ar    1  UNL1        0.0001
     10 C         142.2496  138.4374  165.2458 C.ar    1  UNL1       -0.0003
     11 C         142.4322  138.2941  163.7639 C.ar    1  UNL1       -0.0030
     12 C         141.6557  139.9011  167.3085 C.2     1  UNL1        0.0047
     13 C         142.7033  139.3801  168.2471 C.2     1  UNL1        0.0598
     14 C         142.5207  139.5234  169.7291 C.2     1  UNL1        0.2679
     15 O         143.3584  138.7095  170.6702 O.2     1  UNL1       -0.2681
     16 N         141.5003  140.4807  170.2699 N.am    1  UNL1       -0.1934
     17 O         141.3177  140.6240  171.7518 O.3     1  UNL1       -0.2949
     18 H         140.9505  141.0149  169.6522 H       1  UNL1        0.1825
     19 H         141.9324  140.0315  172.2122 H       1  UNL1        0.2414
     20 C         140.0003  138.2925  160.7637 C.3     1  UNL1        0.0771
     21 C         138.8619  139.2624  160.8806 C.3     1  UNL1        0.0446
     22 C         138.1173  142.4002  161.3797 C.3     1  UNL1        0.0517
     23 C         138.2056  141.3365  162.4337 C.2     1  UNL1        0.0551
     24 N         137.9671  141.5283  163.9021 N.2     1  UNL1       -0.2503
     25 C         138.1620  140.2046  164.5802 C.2     1  UNL1        0.0770
     26 C         138.0590  139.7885  166.0176 C.2     1  UNL1        0.0184
     27 C         138.3149  138.3623  166.4056 C.2     1  UNL1       -0.0027
     28 C         138.6738  137.3524  165.3563 C.2     1  UNL1       -0.0213
     29 C         138.7768  137.7685  163.9189 C.3     1  UNL1        0.0535
     30 C         138.5209  139.1947  163.5309 C.2     1  UNL1       -0.0030
     31 C         138.5478  139.8942  162.2042 C.2     1  UNL1       -0.0094
@<TRIPOS>BOND
     1    22    23    1
     2    23    24    2
     3    24    25    1
     4    25    26    2
     5    26    27    1
     6    27    28    2
     7    28    29    1
     8    29    30    1
     9    30    31    2
    10    31    21    1
    11    21    20    1
    12    20     1    1
    13     1     2    1
    14     2     3    1
    15     3     4    1
    16     4     5    1
    17     5     6    1
    18     6     7   ar
    19     7     8   ar
    20     8     9   ar
    21     9    12    1
    22    12    13    2
    23    13    14    1
    24    14    15    2
    25    14    16   am
    26    16    17    1
    27     9    10   ar
    28    10    11   ar
    29    31    23    1
    30     5     1    1
    31    11     6   ar
    32    30    25    1
    33    16    18    1
    34    17    19    1
@<TRIPOS>MOLECULE
*****
 31 34 0 0 0
SMALL
GASTEIGER

@<TRIPOS>ATOM
      1 N         141.9145  140.0580  161.0750 N.3     1  UNL1       -0.2700
      2 C         142.5809  139.1092  160.1233 C.3     1  UNL1        0.0724
      3 C         143.2052  138.0079  160.9278 C.3     1  UNL1        0.0191
      4 C         142.9245  138.2759  162.3768 C.3     1  UNL1        0.0219
      5 C         142.1268  139.5430  162.4677 C.3     1  UNL1        0.0801
      6 C         141.6289  140.1826  163.7298 C.ar    1  UNL1       -0.0078
      7 C         142.5877  140.8909  164.6405 C.ar    1  UNL1       -0.0030
      8 C         142.0897  141.5306  165.9026 C.ar    1  UNL1       -0.0003
      9 C         140.6330  141.4620  166.2540 C.ar    1  UNL1        0.0001
     10 C         139.6744  140.7538  165.3434 C.ar    1  UNL1       -0.0003
     11 C         140.1723  140.1141  164.0813 C.ar    1  UNL1       -0.0030
     12 C         140.1351  142.1017  167.5161 C.2     1  UNL1        0.0047
     13 C         141.1113  142.5977  168.5412 C.2     1  UNL1        0.0598
     14 C         140.6134  143.2374  169.8033 C.2     1  UNL1        0.2679
     15 O         141.3902  144.3542  170.4351 O.2     1  UNL1       -0.2681
     16 N         139.3386  142.7602  170.4336 N.am    1  UNL1       -0.1934
     17 O         138.8407  143.3999  171.6957 O.3     1  UNL1       -0.2949
     18 H         138.8287  142.0272  170.0189 H       1  UNL1        0.1825
     19 H         139.4555  144.0989  171.9683 H       1  UNL1        0.2414
     20 C         141.1669  141.3031  160.6999 C.3     1  UNL1        0.0771
     21 C         141.7980  142.6481  160.9073 C.3     1  UNL1        0.0446
     22 C         144.0215  144.2519  162.6774 C.3     1  UNL1        0.0517
     23 C         142.5567  144.1506  162.9838 C.2     1  UNL1        0.0551
     24 N         141.8566  144.7686  164.1577 N.2     1  UNL1       -0.2503
     25 C         140.4019  144.4133  164.0696 C.2     1  UNL1        0.0770
     26 C         139.2329  144.7443  164.9492 C.2     1  UNL1        0.0184
     27 C         137.8648  144.2377  164.6004 C.2     1  UNL1       -0.0027
     28 C         137.6658  143.4001  163.3720 C.2     1  UNL1       -0.0213
     29 C         138.8349  143.0691  162.4925 C.3     1  UNL1        0.0535
     30 C         140.2029  143.5757  162.8413 C.2     1  UNL1       -0.0030
     31 C         141.5346  143.4133  162.1702 C.2     1  UNL1       -0.0094
@<TRIPOS>BOND
     1    22    23    1
     2    23    24    2
     3    24    25    1
     4    25    26    2
     5    26    27    1
     6    27    28    2
     7    28    29    1
     8    29    30    1
     9    30    31    2
    10    31    21    1
    11    21    20    1
    12    20     1    1
    13     1     2    1
    14     2     3    1
    15     3     4    1
    16     4     5    1
    17     5     6    1
    18     6     7   ar
    19     7     8   ar
    20     8     9   ar
    21     9    12    1
    22    12    13    2
    23    13    14    1
    24    14    15    2
    25    14    16   am
    26    16    17    1
    27     9    10   ar
    28    10    11   ar
    29    31    23    1
    30     5     1    1
    31    11     6   ar
    32    30    25    1
    33    16    18    1
    34    17    19    1
@<TRIPOS>MOLECULE
*****
 31 34 0 0 0
SMALL
GASTEIGER

@<TRIPOS>ATOM
      1 N         141.8161  143.7598  161.5511 N.3     1  UNL1       -0.2700
      2 C         141.5588  144.6990  160.4101 C.3     1  UNL1        0.0724
      3 C         140.3548  145.5254  160.7524 C.3     1  UNL1        0.0191
      4 C         139.8679  145.0971  162.1050 C.3     1  UNL1        0.0219
      5 C         140.7710  144.0059  162.5986 C.3     1  UNL1        0.0801
      6 C         140.6503  143.2869  163.9096 C.ar    1  UNL1       -0.0078
      7 C         139.3528  142.6391  164.2930 C.ar    1  UNL1       -0.0030
      8 C         139.2321  141.9202  165.6040 C.ar    1  UNL1       -0.0003
      9 C         140.4089  141.8491  166.5315 C.ar    1  UNL1        0.0001
     10 C         141.7063  142.4969  166.1480 C.ar    1  UNL1       -0.0003
     11 C         141.8270  143.2158  164.8371 C.ar    1  UNL1       -0.0030
     12 C         140.2882  141.1302  167.8424 C.2     1  UNL1        0.0047
     13 C         140.2967  141.9054  169.1265 C.2     1  UNL1        0.0598
     14 C         140.1760  141.1865  170.4375 C.2     1  UNL1        0.2679
     15 O         140.5138  141.8954  171.7155 O.2     1  UNL1       -0.2681
     16 N         139.7175  139.7586  170.4703 N.am    1  UNL1       -0.1934
     17 O         139.5968  139.0397  171.7813 O.3     1  UNL1       -0.2949
     18 H         139.4958  139.2934  169.6315 H       1  UNL1        0.1825
     19 H         139.8511  139.6369  172.5022 H       1  UNL1        0.2414
     20 C         142.9239  142.7517  161.6306 C.3     1  UNL1        0.0771
     21 C         142.6196  141.2900  161.4856 C.3     1  UNL1        0.0446
     22 C         145.0245  140.5906  163.5778 C.3     1  UNL1        0.0517
     23 C         143.6090  140.1021  163.6663 C.2     1  UNL1        0.0551
     24 N         143.0504  139.2064  164.7319 N.2     1  UNL1       -0.2503
     25 C         141.5998  138.9742  164.4288 C.2     1  UNL1        0.0770
     26 C         140.5429  138.1751  165.1319 C.2     1  UNL1        0.0184
     27 C         139.1482  138.1281  164.5820 C.2     1  UNL1       -0.0027
     28 C         138.8103  138.8804  163.3291 C.2     1  UNL1       -0.0213
     29 C         139.8671  139.6796  162.6260 C.3     1  UNL1        0.0535
     30 C         141.2619  139.7265  163.1759 C.2     1  UNL1       -0.0030
     31 C         142.5036  140.4236  162.7046 C.2     1  UNL1       -0.0094
@<TRIPOS>BOND
     1    22    23    1
     2    23    24    2
     3    24    25    1
     4    25    26    2
     5    26    27    1
     6    27    28    2
     7    28    29    1
     8    29    30    1
     9    30    31    2
    10    31    21    1
    11    21    20    1
    12    20     1    1
    13     1     2    1
    14     2     3    1
    15     3     4    1
    16     4     5    1
    17     5     6    1
    18     6     7   ar
    19     7     8   ar
    20     8     9   ar
    21     9    12    1
    22    12    13    2
    23    13    14    1
    24    14    15    2
    25    14    16   am
    26    16    17    1
    27     9    10   ar
    28    10    11   ar
    29    31    23    1
    30     5     1    1
    31    11     6   ar
    32    30    25    1
    33    16    18    1
    34    17    19    1
