@<TRIPOS>MOLECULE
*****
 28 31 0 0 0
SMALL
GASTEIGER

@<TRIPOS>ATOM
      1 C         141.0200  138.5582  162.2914 C.ar    1  UNL1        0.1917
      2 N         139.7897  137.7337  162.0536 N.ar    1  UNL1       -0.1268
      3 N         138.9642  137.7612  163.3057 N.ar    1  UNL1       -0.1316
      4 C         139.6843  138.6028  164.3173 C.ar    1  UNL1        0.1616
      5 N         140.9549  139.0953  163.6904 N.ar    1  UNL1       -0.2940
      6 C         141.8883  139.9693  164.4745 C.3     1  UNL1        0.1302
      7 C         141.5512  140.3507  165.8855 C.3     1  UNL1        0.1186
      8 N         140.2806  139.8582  166.5124 N.am    1  UNL1       -0.2687
      9 C         139.9435  140.2396  167.9234 C.2     1  UNL1        0.2494
     10 O         138.6729  139.7470  168.5503 O.2     1  UNL1       -0.2699
     11 C         139.3472  138.9842  165.7283 C.3     1  UNL1        0.1367
     12 C         140.8770  141.1136  168.7074 C.ar    1  UNL1        0.0537
     13 C         142.2111  140.5845  169.1436 C.ar    1  UNL1        0.0068
     14 C         143.1446  141.4586  169.9277 C.ar    1  UNL1        0.0298
     15 C         142.7440  142.8616  170.2756 C.ar    1  UNL1        0.1401
     16 F         143.6774  143.7356  171.0596 F       1  UNL1       -0.2042
     17 C         141.4098  143.3906  169.8394 C.ar    1  UNL1        0.0298
     18 C         140.4764  142.5166  169.0553 C.ar    1  UNL1        0.0068
     19 C         143.7102  140.3185  158.1028 C.3     1  UNL1        0.0744
     20 C         143.3585  139.6118  159.3783 C.ar    1  UNL1        0.1481
     21 N         144.2771  138.7460  160.1886 N.ar    1  UNL1       -0.1929
     22 S         143.5128  138.2459  161.3786 S.2     1  UNL1        0.0369
     23 C         142.1220  138.8027  161.3036 C.ar    1  UNL1        0.1652
     24 N         142.0266  139.6468  160.0674 N.ar    1  UNL1       -0.2190
     25 C         138.0766  138.4916  166.3552 C.3     1  UNL1        0.0593
     26 C         137.8117  137.0186  166.4555 C.3     1  UNL1        0.1393
     27 O         137.0866  136.4664  167.6469 O.3     1  UNL1       -0.3819
     28 H         137.6300  136.5881  168.4411 H       1  UNL1        0.2104
@<TRIPOS>BOND
     1    19    20    1
     2    20    21   ar
     3    21    22   ar
     4    22    23   ar
     5    23     1    1
     6     1     2   ar
     7     2     3   ar
     8     3     4   ar
     9     4     5   ar
    10     5     6    1
    11     6     7    1
    12     7     8    1
    13     8     9   am
    14     9    10    2
    15     9    12    1
    16    12    13   ar
    17    13    14   ar
    18    14    15   ar
    19    15    16    1
    20    15    17   ar
    21    17    18   ar
    22     8    11    1
    23    11    25    1
    24    25    26    1
    25    26    27    1
    26    23    24   ar
    27    24    20   ar
    28     5     1   ar
    29    18    12   ar
    30    11     4    1
    31    27    28    1
@<TRIPOS>MOLECULE
*****
 28 31 0 0 0
SMALL
GASTEIGER

@<TRIPOS>ATOM
      1 C         142.4541  143.4774  160.4409 C.ar    1  UNL1        0.1917
      2 N         143.9251  143.3568  160.1736 N.ar    1  UNL1       -0.1268
      3 N         144.4779  142.3053  161.0895 N.ar    1  UNL1       -0.1316
      4 C         143.3485  141.7761  161.9228 C.ar    1  UNL1        0.1616
      5 N         142.0977  142.5005  161.5219 N.ar    1  UNL1       -0.2940
      6 C         140.7958  142.1769  162.1930 C.3     1  UNL1        0.1302
      7 C         140.7447  141.1290  163.2651 C.3     1  UNL1        0.1186
      8 N         141.9955  140.4046  163.6660 N.am    1  UNL1       -0.2687
      9 C         141.9445  139.3567  164.7380 C.2     1  UNL1        0.2494
     10 O         143.1953  138.6323  165.1389 O.2     1  UNL1       -0.2699
     11 C         143.2975  140.7282  162.9948 C.3     1  UNL1        0.1367
     12 C         140.6426  139.0331  165.4091 C.ar    1  UNL1        0.0537
     13 C         140.1949  139.8277  166.5999 C.ar    1  UNL1        0.0068
     14 C         138.8929  139.5041  167.2710 C.ar    1  UNL1        0.0298
     15 C         138.0388  138.3860  166.7513 C.ar    1  UNL1        0.1401
     16 F         136.7369  138.0624  167.4224 F       1  UNL1       -0.2042
     17 C         138.4866  137.5914  165.5604 C.ar    1  UNL1        0.0298
     18 C         139.7884  137.9149  164.8893 C.ar    1  UNL1        0.0068
     19 C         139.9289  146.1947  156.6831 C.3     1  UNL1        0.0744
     20 C         140.3452  145.6599  158.0213 C.ar    1  UNL1        0.1481
     21 N         139.7480  146.0353  159.3452 N.ar    1  UNL1       -0.1929
     22 S         140.4654  145.2633  160.4127 S.2     1  UNL1        0.0369
     23 C         141.5058  144.4110  159.7486 C.ar    1  UNL1        0.1652
     24 N         141.4315  144.6561  158.2706 N.ar    1  UNL1       -0.2190
     25 C         144.5483  140.0038  163.3957 C.3     1  UNL1        0.0593
     26 C         145.6705  140.7520  164.0522 C.3     1  UNL1        0.1393
     27 O         146.4527  141.7668  163.2722 O.3     1  UNL1       -0.3819
     28 H         146.9459  141.3215  162.5656 H       1  UNL1        0.2104
@<TRIPOS>BOND
     1    19    20    1
     2    20    21   ar
     3    21    22   ar
     4    22    23   ar
     5    23     1    1
     6     1     2   ar
     7     2     3   ar
     8     3     4   ar
     9     4     5   ar
    10     5     6    1
    11     6     7    1
    12     7     8    1
    13     8     9   am
    14     9    10    2
    15     9    12    1
    16    12    13   ar
    17    13    14   ar
    18    14    15   ar
    19    15    16    1
    20    15    17   ar
    21    17    18   ar
    22     8    11    1
    23    11    25    1
    24    25    26    1
    25    26    27    1
    26    23    24   ar
    27    24    20   ar
    28     5     1   ar
    29    18    12   ar
    30    11     4    1
    31    27    28    1
@<TRIPOS>MOLECULE
*****
 28 31 0 0 0
SMALL
GASTEIGER

@<TRIPOS>ATOM
      1 C         138.8522  142.4832  162.0688 C.ar    1  UNL1        0.1917
      2 N         137.8901  141.3903  161.7083 N.ar    1  UNL1       -0.1268
      3 N         137.7269  140.5028  162.9065 N.ar    1  UNL1       -0.1316
      4 C         138.5881  141.0471  164.0074 C.ar    1  UNL1        0.1616
      5 N         139.2836  142.2711  163.4896 N.ar    1  UNL1       -0.2940
      6 C         140.2199  143.0344  164.3789 C.3     1  UNL1        0.1302
      7 C         140.4607  142.5736  165.7860 C.3     1  UNL1        0.1186
      8 N         139.7651  141.3496  166.3037 N.am    1  UNL1       -0.2687
      9 C         140.0059  140.8889  167.7107 C.2     1  UNL1        0.2494
     10 O         139.3104  139.6649  168.2285 O.2     1  UNL1       -0.2699
     11 C         138.8288  140.5864  165.4144 C.3     1  UNL1        0.1367
     12 C         140.9422  141.6522  168.6000 C.ar    1  UNL1        0.0537
     13 C         140.4459  142.8426  169.3658 C.ar    1  UNL1        0.0068
     14 C         141.3822  143.6059  170.2551 C.ar    1  UNL1        0.0298
     15 C         142.8148  143.1787  170.3785 C.ar    1  UNL1        0.1401
     16 F         143.7511  143.9420  171.2678 F       1  UNL1       -0.2042
     17 C         143.3110  141.9882  169.6127 C.ar    1  UNL1        0.0298
     18 C         142.3748  141.2249  168.7235 C.ar    1  UNL1        0.0068
     19 C         140.2993  145.1874  157.7706 C.3     1  UNL1        0.0744
     20 C         139.9688  144.8363  159.1910 C.ar    1  UNL1        0.1481
     21 N         140.0281  145.7670  160.3659 N.ar    1  UNL1       -0.1929
     22 S         139.6169  144.9988  161.5870 S.2     1  UNL1        0.0369
     23 C         139.3037  143.5934  161.1667 C.ar    1  UNL1        0.1652
     24 N         139.5211  143.4929  159.6859 N.ar    1  UNL1       -0.2190
     25 C         138.1333  139.3623  165.9322 C.3     1  UNL1        0.0593
     26 C         138.5535  138.0032  165.4564 C.3     1  UNL1        0.1393
     27 O         138.8943  137.7865  164.0118 O.3     1  UNL1       -0.3819
     28 H         138.0992  137.9095  163.4700 H       1  UNL1        0.2104
@<TRIPOS>BOND
     1    19    20    1
     2    20    21   ar
     3    21    22   ar
     4    22    23   ar
     5    23     1    1
     6     1     2   ar
     7     2     3   ar
     8     3     4   ar
     9     4     5   ar
    10     5     6    1
    11     6     7    1
    12     7     8    1
    13     8     9   am
    14     9    10    2
    15     9    12    1
    16    12    13   ar
    17    13    14   ar
    18    14    15   ar
    19    15    16    1
    20    15    17   ar
    21    17    18   ar
    22     8    11    1
    23    11    25    1
    24    25    26    1
    25    26    27    1
    26    23    24   ar
    27    24    20   ar
    28     5     1   ar
    29    18    12   ar
    30    11     4    1
    31    27    28    1
@<TRIPOS>MOLECULE
*****
 28 31 0 0 0
SMALL
GASTEIGER

@<TRIPOS>ATOM
      1 C         141.3535  141.4317  160.9511 C.ar    1  UNL1        0.1917
      2 N         140.4482  142.4840  160.3825 N.ar    1  UNL1       -0.1268
      3 N         139.8599  143.2564  161.5258 N.ar    1  UNL1       -0.1316
      4 C         140.4015  142.6815  162.8011 C.ar    1  UNL1        0.1616
      5 N         141.3246  141.5538  162.4459 N.ar    1  UNL1       -0.2940
      6 C         142.0196  140.7839  163.5294 C.3     1  UNL1        0.1302
      7 C         141.7916  141.1416  164.9682 C.3     1  UNL1        0.1186
      8 N         140.8685  142.2693  165.3234 N.am    1  UNL1       -0.2687
      9 C         140.6404  142.6270  166.7621 C.2     1  UNL1        0.2494
     10 O         139.7173  143.7547  167.1173 O.2     1  UNL1       -0.2699
     11 C         140.1734  143.0393  164.2398 C.3     1  UNL1        0.1367
     12 C         141.3354  141.8571  167.8456 C.ar    1  UNL1        0.0537
     13 C         140.7310  140.5883  168.3700 C.ar    1  UNL1        0.0068
     14 C         141.4261  139.8183  169.4535 C.ar    1  UNL1        0.0298
     15 C         142.7255  140.3171  170.0127 C.ar    1  UNL1        0.1401
     16 F         143.4206  139.5471  171.0963 F       1  UNL1       -0.2042
     17 C         143.3299  141.5859  169.4884 C.ar    1  UNL1        0.0298
     18 C         142.6349  142.3559  168.4049 C.ar    1  UNL1        0.0068
     19 C         142.6299  137.3940  157.7971 C.3     1  UNL1        0.0744
     20 C         142.7348  138.5768  158.7136 C.ar    1  UNL1        0.1481
     21 N         144.0070  139.2142  159.1884 N.ar    1  UNL1       -0.1929
     22 S         143.6443  140.3613  160.0844 S.2     1  UNL1        0.0369
     23 C         142.1481  140.4328  160.1633 C.ar    1  UNL1        0.1652
     24 N         141.5860  139.3299  159.3161 N.ar    1  UNL1       -0.2190
     25 C         139.2503  144.1670  164.5950 C.3     1  UNL1        0.0593
     26 C         137.8129  144.1224  164.1683 C.3     1  UNL1        0.1393
     27 O         137.4335  144.5088  162.7695 O.3     1  UNL1       -0.3819
     28 H         137.6137  145.4524  162.6346 H       1  UNL1        0.2104
@<TRIPOS>BOND
     1    19    20    1
     2    20    21   ar
     3    21    22   ar
     4    22    23   ar
     5    23     1    1
     6     1     2   ar
     7     2     3   ar
     8     3     4   ar
     9     4     5   ar
    10     5     6    1
    11     6     7    1
    12     7     8    1
    13     8     9   am
    14     9    10    2
    15     9    12    1
    16    12    13   ar
    17    13    14   ar
    18    14    15   ar
    19    15    16    1
    20    15    17   ar
    21    17    18   ar
    22     8    11    1
    23    11    25    1
    24    25    26    1
    25    26    27    1
    26    23    24   ar
    27    24    20   ar
    28     5     1   ar
    29    18    12   ar
    30    11     4    1
    31    27    28    1
@<TRIPOS>MOLECULE
*****
 28 31 0 0 0
SMALL
GASTEIGER

@<TRIPOS>ATOM
      1 C         140.1843  144.0355  159.2442 C.ar    1  UNL1        0.1917
      2 N         141.1059  145.2026  159.4400 N.ar    1  UNL1       -0.1268
      3 N         141.6590  145.1279  160.8323 N.ar    1  UNL1       -0.1316
      4 C         141.0793  143.9146  161.4969 C.ar    1  UNL1        0.1616
      5 N         140.1678  143.2394  160.5154 N.ar    1  UNL1       -0.2940
      6 C         139.4407  141.9870  160.9061 C.3     1  UNL1        0.1302
      7 C         139.6250  141.4097  162.2783 C.3     1  UNL1        0.1186
      8 N         140.5364  142.0849  163.2598 N.am    1  UNL1       -0.2687
      9 C         140.7207  141.5077  164.6319 C.2     1  UNL1        0.2494
     10 O         141.6322  142.1829  165.6134 O.2     1  UNL1       -0.2699
     11 C         141.2636  143.3374  162.8691 C.3     1  UNL1        0.1367
     12 C         139.9936  140.2553  165.0226 C.ar    1  UNL1        0.0537
     13 C         140.5239  138.9173  164.6000 C.ar    1  UNL1        0.0068
     14 C         139.7967  137.6649  164.9907 C.ar    1  UNL1        0.0298
     15 C         138.5392  137.7504  165.8039 C.ar    1  UNL1        0.1401
     16 F         137.8120  136.4979  166.1946 F       1  UNL1       -0.2042
     17 C         138.0089  139.0884  166.2264 C.ar    1  UNL1        0.0298
     18 C         138.7360  140.3408  165.8358 C.ar    1  UNL1        0.0068
     19 C         136.5918  142.0369  155.9305 C.3     1  UNL1        0.0744
     20 C         137.7630  142.8011  156.4731 C.ar    1  UNL1        0.1481
     21 N         138.6956  143.6665  155.6786 N.ar    1  UNL1       -0.1929
     22 S         139.7162  144.2343  156.6200 S.2     1  UNL1        0.0369
     23 C         139.4143  143.7197  157.9962 C.ar    1  UNL1        0.1652
     24 N         138.2071  142.8340  157.9055 N.ar    1  UNL1       -0.2190
     25 C         142.1750  144.0126  163.8506 C.3     1  UNL1        0.0593
     26 C         143.6230  144.2134  163.5141 C.3     1  UNL1        0.1393
     27 O         144.0446  145.3926  162.6885 O.3     1  UNL1       -0.3819
     28 H         143.6802  145.3077  161.7935 H       1  UNL1        0.2104
@<TRIPOS>BOND
     1    19    20    1
     2    20    21   ar
     3    21    22   ar
     4    22    23   ar
     5    23     1    1
     6     1     2   ar
     7     2     3   ar
     8     3     4   ar
     9     4     5   ar
    10     5     6    1
    11     6     7    1
    12     7     8    1
    13     8     9   am
    14     9    10    2
    15     9    12    1
    16    12    13   ar
    17    13    14   ar
    18    14    15   ar
    19    15    16    1
    20    15    17   ar
    21    17    18   ar
    22     8    11    1
    23    11    25    1
    24    25    26    1
    25    26    27    1
    26    23    24   ar
    27    24    20   ar
    28     5     1   ar
    29    18    12   ar
    30    11     4    1
    31    27    28    1
@<TRIPOS>MOLECULE
*****
 28 31 0 0 0
SMALL
GASTEIGER

@<TRIPOS>ATOM
      1 C         141.9051  142.2202  159.3219 C.ar    1  UNL1        0.1917
      2 N         143.3869  142.2473  159.0905 N.ar    1  UNL1       -0.1268
      3 N         144.0480  141.5412  160.2370 N.ar    1  UNL1       -0.1316
      4 C         142.9748  141.0778  161.1770 C.ar    1  UNL1        0.1616
      5 N         141.6504  141.4975  160.6114 N.ar    1  UNL1       -0.2940
      6 C         140.3836  141.1673  161.3436 C.3     1  UNL1        0.1302
      7 C         140.4412  140.4174  162.6415 C.3     1  UNL1        0.1186
      8 N         141.7656  139.9977  163.2071 N.am    1  UNL1       -0.2687
      9 C         141.8232  139.2479  164.5049 C.2     1  UNL1        0.2494
     10 O         143.1476  138.8282  165.0704 O.2     1  UNL1       -0.2699
     11 C         143.0324  140.3280  162.4748 C.3     1  UNL1        0.1367
     12 C         140.5564  138.9177  165.2371 C.ar    1  UNL1        0.0537
     13 C         139.7867  137.6796  164.8837 C.ar    1  UNL1        0.0068
     14 C         138.5199  137.3495  165.6160 C.ar    1  UNL1        0.0298
     15 C         138.0228  138.2573  166.7016 C.ar    1  UNL1        0.1401
     16 F         136.7560  137.9271  167.4339 F       1  UNL1       -0.2042
     17 C         138.7925  139.4953  167.0550 C.ar    1  UNL1        0.0298
     18 C         140.0592  139.8255  166.3228 C.ar    1  UNL1        0.0068
     19 C         137.5503  142.8176  156.3962 C.3     1  UNL1        0.0744
     20 C         138.8596  143.0866  157.0771 C.ar    1  UNL1        0.1481
     21 N         139.6502  144.3588  156.9964 N.ar    1  UNL1       -0.1929
     22 S         140.8873  144.1891  157.8276 S.2     1  UNL1        0.0369
     23 C         140.8612  142.8120  158.4218 C.ar    1  UNL1        0.1652
     24 N         139.6080  142.1306  157.9580 N.ar    1  UNL1       -0.2190
     25 C         144.3568  139.9083  163.0403 C.3     1  UNL1        0.0593
     26 C         145.2976  140.9388  163.5910 C.3     1  UNL1        0.1393
     27 O         146.0202  141.8677  162.6611 O.3     1  UNL1       -0.3819
     28 H         146.6386  141.3599  162.1128 H       1  UNL1        0.2104
@<TRIPOS>BOND
     1    19    20    1
     2    20    21   ar
     3    21    22   ar
     4    22    23   ar
     5    23     1    1
     6     1     2   ar
     7     2     3   ar
     8     3     4   ar
     9     4     5   ar
    10     5     6    1
    11     6     7    1
    12     7     8    1
    13     8     9   am
    14     9    10    2
    15     9    12    1
    16    12    13   ar
    17    13    14   ar
    18    14    15   ar
    19    15    16    1
    20    15    17   ar
    21    17    18   ar
    22     8    11    1
    23    11    25    1
    24    25    26    1
    25    26    27    1
    26    23    24   ar
    27    24    20   ar
    28     5     1   ar
    29    18    12   ar
    30    11     4    1
    31    27    28    1
@<TRIPOS>MOLECULE
*****
 28 31 0 0 0
SMALL
GASTEIGER

@<TRIPOS>ATOM
      1 C         142.0616  138.4193  157.8664 C.ar    1  UNL1        0.1917
      2 N         143.4548  138.9098  157.6053 N.ar    1  UNL1       -0.1268
      3 N         144.0309  139.3835  158.9068 N.ar    1  UNL1       -0.1316
      4 C         142.9938  139.1856  159.9722 C.ar    1  UNL1        0.1616
      5 N         141.7766  138.5897  159.3292 N.ar    1  UNL1       -0.2940
      6 C         140.5661  138.2793  160.1588 C.3     1  UNL1        0.1302
      7 C         140.5727  138.5648  161.6314 C.3     1  UNL1        0.1186
      8 N         141.7898  139.1607  162.2744 N.am    1  UNL1       -0.2687
      9 C         141.7964  139.4462  163.7469 C.2     1  UNL1        0.2494
     10 O         143.0136  140.0421  164.3899 O.2     1  UNL1       -0.2699
     11 C         143.0004  139.4711  161.4447 C.3     1  UNL1        0.1367
     12 C         140.5859  139.1358  164.5765 C.ar    1  UNL1        0.0537
     13 C         139.7898  140.2504  165.1880 C.ar    1  UNL1        0.0068
     14 C         138.5792  139.9399  166.0176 C.ar    1  UNL1        0.0298
     15 C         138.1648  138.5149  166.2356 C.ar    1  UNL1        0.1401
     16 F         136.9542  138.2044  167.0652 F       1  UNL1       -0.2042
     17 C         138.9609  137.4003  165.6241 C.ar    1  UNL1        0.0298
     18 C         140.1714  137.7107  164.7946 C.ar    1  UNL1        0.0068
     19 C         137.9922  137.8856  154.5444 C.3     1  UNL1        0.0744
     20 C         139.2483  137.6117  155.3172 C.ar    1  UNL1        0.1481
     21 N         140.0875  136.3718  155.2251 N.ar    1  UNL1       -0.1929
     22 S         141.2435  136.5234  156.1689 S.2     1  UNL1        0.0369
     23 C         141.1187  137.8570  156.8442 C.ar    1  UNL1        0.1652
     24 N         139.8856  138.5296  156.3179 N.ar    1  UNL1       -0.2190
     25 C         144.2175  140.0670  162.0877 C.3     1  UNL1        0.0593
     26 C         144.5572  141.5098  161.8572 C.3     1  UNL1        0.1393
     27 O         145.8893  142.0454  162.2917 O.3     1  UNL1       -0.3819
     28 H         145.9491  142.0171  163.2594 H       1  UNL1        0.2104
@<TRIPOS>BOND
     1    19    20    1
     2    20    21   ar
     3    21    22   ar
     4    22    23   ar
     5    23     1    1
     6     1     2   ar
     7     2     3   ar
     8     3     4   ar
     9     4     5   ar
    10     5     6    1
    11     6     7    1
    12     7     8    1
    13     8     9   am
    14     9    10    2
    15     9    12    1
    16    12    13   ar
    17    13    14   ar
    18    14    15   ar
    19    15    16    1
    20    15    17   ar
    21    17    18   ar
    22     8    11    1
    23    11    25    1
    24    25    26    1
    25    26    27    1
    26    23    24   ar
    27    24    20   ar
    28     5     1   ar
    29    18    12   ar
    30    11     4    1
    31    27    28    1
@<TRIPOS>MOLECULE
*****
 28 31 0 0 0
SMALL
GASTEIGER

@<TRIPOS>ATOM
      1 C         140.9120  138.8978  158.0172 C.ar    1  UNL1        0.1917
      2 N         139.4528  138.8385  157.6749 N.ar    1  UNL1       -0.1268
      3 N         138.7067  139.6631  158.6815 N.ar    1  UNL1       -0.1316
      4 C         139.7047  140.2321  159.6460 C.ar    1  UNL1        0.1616
      5 N         141.0677  139.7591  159.2355 N.ar    1  UNL1       -0.2940
      6 C         142.2745  140.1737  160.0239 C.3     1  UNL1        0.1302
      7 C         142.1183  141.0614  161.2230 C.3     1  UNL1        0.1186
      8 N         140.7553  141.5344  161.6335 N.am    1  UNL1       -0.2687
      9 C         140.5991  142.4220  162.8326 C.2     1  UNL1        0.2494
     10 O         139.2361  142.8950  163.2431 O.2     1  UNL1       -0.2699
     11 C         139.5485  141.1197  160.8450 C.3     1  UNL1        0.1367
     12 C         141.8059  142.8366  163.6210 C.ar    1  UNL1        0.0537
     13 C         142.3093  141.9669  164.7347 C.ar    1  UNL1        0.0068
     14 C         143.5161  142.3816  165.5232 C.ar    1  UNL1        0.0298
     15 C         144.2195  143.6659  165.1980 C.ar    1  UNL1        0.1401
     16 F         145.4263  144.0806  165.9865 F       1  UNL1       -0.2042
     17 C         143.7160  144.5356  164.0844 C.ar    1  UNL1        0.0298
     18 C         142.5093  144.1210  163.2959 C.ar    1  UNL1        0.0068
     19 C         143.9238  135.1675  155.8049 C.3     1  UNL1        0.0744
     20 C         143.4052  136.5010  156.2554 C.ar    1  UNL1        0.1481
     21 N         144.0492  137.8307  155.9962 N.ar    1  UNL1       -0.1929
     22 S         143.1936  138.8904  156.6247 S.2     1  UNL1        0.0369
     23 C         142.0209  138.2156  157.2722 C.ar    1  UNL1        0.1652
     24 N         142.1516  136.7389  157.0440 N.ar    1  UNL1       -0.2190
     25 C         138.1855  141.5927  161.2555 C.3     1  UNL1        0.0593
     26 C         137.3246  140.7307  162.1307 C.3     1  UNL1        0.1393
     27 O         136.5913  141.3358  163.2909 O.3     1  UNL1       -0.3819
     28 H         137.2307  141.6487  163.9498 H       1  UNL1        0.2104
@<TRIPOS>BOND
     1    19    20    1
     2    20    21   ar
     3    21    22   ar
     4    22    23   ar
     5    23     1    1
     6     1     2   ar
     7     2     3   ar
     8     3     4   ar
     9     4     5   ar
    10     5     6    1
    11     6     7    1
    12     7     8    1
    13     8     9   am
    14     9    10    2
    15     9    12    1
    16    12    13   ar
    17    13    14   ar
    18    14    15   ar
    19    15    16    1
    20    15    17   ar
    21    17    18   ar
    22     8    11    1
    23    11    25    1
    24    25    26    1
    25    26    27    1
    26    23    24   ar
    27    24    20   ar
    28     5     1   ar
    29    18    12   ar
    30    11     4    1
    31    27    28    1
@<TRIPOS>MOLECULE
*****
 28 31 0 0 0
SMALL
GASTEIGER

@<TRIPOS>ATOM
      1 C         139.7141  141.3195  159.2240 C.ar    1  UNL1        0.1917
      2 N         139.1573  142.6022  158.6811 N.ar    1  UNL1       -0.1268
      3 N         138.9906  143.5566  159.8263 N.ar    1  UNL1       -0.1316
      4 C         139.4444  142.8638  161.0769 C.ar    1  UNL1        0.1616
      5 N         139.8916  141.4812  160.7047 N.ar    1  UNL1       -0.2940
      6 C         140.4026  140.5481  161.7621 C.3     1  UNL1        0.1302
      7 C         140.4664  140.9975  163.1918 C.3     1  UNL1        0.1186
      8 N         140.0193  142.3801  163.5640 N.am    1  UNL1       -0.2687
      9 C         140.0832  142.8296  164.9936 C.2     1  UNL1        0.2494
     10 O         139.6361  144.2122  165.3658 O.2     1  UNL1       -0.2699
     11 C         139.5083  143.3133  162.5065 C.3     1  UNL1        0.1367
     12 C         140.5942  141.8965  166.0510 C.ar    1  UNL1        0.0537
     13 C         139.6542  140.9441  166.7288 C.ar    1  UNL1        0.0068
     14 C         140.1652  140.0110  167.7863 C.ar    1  UNL1        0.0298
     15 C         141.6162  140.0303  168.1659 C.ar    1  UNL1        0.1401
     16 F         142.1273  139.0971  169.2234 F       1  UNL1       -0.2042
     17 C         142.5562  140.9826  167.4881 C.ar    1  UNL1        0.0298
     18 C         142.0453  141.9157  166.4307 C.ar    1  UNL1        0.0068
     19 C         139.2585  137.1593  156.0045 C.3     1  UNL1        0.0744
     20 C         139.8273  138.1787  156.9465 C.ar    1  UNL1        0.1481
     21 N         141.2393  138.2217  157.4511 N.ar    1  UNL1       -0.1929
     22 S         141.3687  139.4036  158.3658 S.2     1  UNL1        0.0369
     23 C         140.0368  140.0909  158.4263 C.ar    1  UNL1        0.1652
     24 N         139.0841  139.3338  157.5492 N.ar    1  UNL1       -0.2190
     25 C         139.0612  144.6958  162.8787 C.3     1  UNL1        0.0593
     26 C         139.7167  145.8904  162.2514 C.3     1  UNL1        0.1393
     27 O         139.0334  146.6198  161.1329 O.3     1  UNL1       -0.3819
     28 H         138.9752  146.0405  160.3571 H       1  UNL1        0.2104
@<TRIPOS>BOND
     1    19    20    1
     2    20    21   ar
     3    21    22   ar
     4    22    23   ar
     5    23     1    1
     6     1     2   ar
     7     2     3   ar
     8     3     4   ar
     9     4     5   ar
    10     5     6    1
    11     6     7    1
    12     7     8    1
    13     8     9   am
    14     9    10    2
    15     9    12    1
    16    12    13   ar
    17    13    14   ar
    18    14    15   ar
    19    15    16    1
    20    15    17   ar
    21    17    18   ar
    22     8    11    1
    23    11    25    1
    24    25    26    1
    25    26    27    1
    26    23    24   ar
    27    24    20   ar
    28     5     1   ar
    29    18    12   ar
    30    11     4    1
    31    27    28    1
