@<TRIPOS>MOLECULE
*****
 34 37 0 0 0
SMALL
GASTEIGER

@<TRIPOS>ATOM
      1 C         140.2416  139.8270  160.5250 C.ar    1  UNL1        0.1665
      2 N         139.6781  139.1704  161.7502 N.ar    1  UNL1       -0.1866
      3 C         139.2155  140.0086  162.9048 C.ar    1  UNL1        0.2814
      4 O         138.6520  139.3520  164.1302 O.2     1  UNL1       -0.2651
      5 C         139.3163  141.5036  162.8342 C.ar    1  UNL1        0.0699
      6 C         138.8537  142.3419  163.9889 C.ar    1  UNL1        0.0096
      7 C         138.9545  143.8368  163.9183 C.ar    1  UNL1        0.0777
      8 C         139.5180  144.4935  162.6930 C.ar    1  UNL1        0.0797
      9 C         139.9806  143.6552  161.5384 C.ar    1  UNL1        0.2960
     10 C         139.8798  142.1602  161.6090 C.ar    1  UNL1        0.1059
     11 S         140.3424  141.3220  160.4544 S.2     1  UNL1       -0.0466
     12 N         141.6295  137.3122  157.0609 N.3     1  UNL1       -0.2698
     13 C         140.1755  137.6508  157.2069 C.3     1  UNL1        0.0939
     14 C         139.7129  138.4890  158.3616 C.3     1  UNL1        0.1100
     15 N         140.7043  138.9887  159.3703 N.pl3   1  UNL1       -0.2852
     16 C         142.1582  138.6502  159.2243 C.3     1  UNL1        0.1100
     17 C         142.6209  137.8119  158.0696 C.3     1  UNL1        0.0939
     18 C         142.0921  136.4740  155.9062 C.3     1  UNL1        0.0722
     19 N         142.8585  130.5645  156.6063 N.2     1  UNL1       -0.0917
     20 C         142.6669  132.0418  156.4313 C.2     1  UNL1        0.0748
     21 C         143.5075  133.0052  157.2156 C.3     1  UNL1        0.0447
     22 C         143.3159  134.4827  157.0406 C.3     1  UNL1        0.0074
     23 C         142.2837  134.9966  156.0812 C.3     1  UNL1        0.0167
     24 C         141.4431  134.0332  155.2968 C.3     1  UNL1        0.0074
     25 C         141.6347  132.5558  155.4719 C.3     1  UNL1        0.0447
     26 C         143.4887  129.1224  158.6734 C.3     1  UNL1        0.2885
     27 O         143.8906  130.0505  157.5657 O.2     1  UNL1       -0.3737
     28 C         138.4918  144.6751  165.0730 C.3     1  UNL1        0.4188
     29 F         138.0292  145.5134  166.2277 F       1  UNL1       -0.1659
     30 F         139.9070  145.0995  165.3319 F       1  UNL1       -0.1659
     31 F         137.0767  144.2506  164.8141 F       1  UNL1       -0.1659
     32 N         140.5440  144.3119  160.3131 N.pl3   1  UNL1        0.0814
     33 O         141.9964  144.6834  160.2620 O.2     1  UNL1        0.0415
     34 O         139.6552  144.5970  159.1390 O.co2   1  UNL1       -0.5760
@<TRIPOS>UNITY_ATOM_ATTR
32 1
charge 1
34 1
charge -1
@<TRIPOS>BOND
     1    26    27    1
     2    27    19    1
     3    19    20    2
     4    20    21    1
     5    21    22    1
     6    22    23    1
     7    23    18    1
     8    18    12    1
     9    12    13    1
    10    13    14    1
    11    14    15    1
    12    15     1    1
    13     1     2   ar
    14     2     3   ar
    15     3     4    2
    16     3     5   ar
    17     5     6   ar
    18     6     7   ar
    19     7    28    1
    20    28    29    1
    21    28    30    1
    22    28    31    1
    23     7     8   ar
    24     8     9   ar
    25     9    32    1
    26    32    33    2
    27    32    34    1
    28     9    10   ar
    29    10    11   ar
    30    15    16    1
    31    16    17    1
    32    23    24    1
    33    24    25    1
    34    25    20    1
    35    17    12    1
    36    11     1   ar
    37    10     5   ar
@<TRIPOS>MOLECULE
*****
 34 37 0 0 0
SMALL
GASTEIGER

@<TRIPOS>ATOM
      1 C         141.5600  143.5921  161.8625 C.ar    1  UNL1        0.1665
      2 N         140.5443  144.6942  161.9236 N.ar    1  UNL1       -0.1866
      3 C         140.1913  145.4583  160.6821 C.ar    1  UNL1        0.2814
      4 O         139.1755  146.5604  160.7431 O.2     1  UNL1       -0.2651
      5 C         140.8539  145.1203  159.3795 C.ar    1  UNL1        0.0699
      6 C         140.5008  145.8845  158.1379 C.ar    1  UNL1        0.0096
      7 C         141.1635  145.5466  156.8353 C.ar    1  UNL1        0.0777
      8 C         142.1792  144.4444  156.7743 C.ar    1  UNL1        0.0797
      9 C         142.5322  143.6803  158.0159 C.ar    1  UNL1        0.2960
     10 C         141.8696  144.0183  159.3184 C.ar    1  UNL1        0.1059
     11 S         142.2226  143.2541  160.5600 S.2     1  UNL1       -0.0466
     12 N         142.6193  141.2995  165.5871 N.3     1  UNL1       -0.2698
     13 C         142.0467  140.5809  164.4014 C.3     1  UNL1        0.0939
     14 C         141.6936  141.3451  163.1600 C.3     1  UNL1        0.1100
     15 N         141.9131  142.8279  163.1041 N.pl3   1  UNL1       -0.2852
     16 C         142.4856  143.5465  164.2897 C.3     1  UNL1        0.1100
     17 C         142.8387  142.7823  165.5313 C.3     1  UNL1        0.0939
     18 C         142.9723  140.5353  166.8286 C.3     1  UNL1        0.0722
     19 N         138.7975  139.5232  171.0174 N.2     1  UNL1       -0.0917
     20 C         139.8412  139.7762  169.9702 C.2     1  UNL1        0.0748
     21 C         139.4302  140.0878  168.5617 C.3     1  UNL1        0.0447
     22 C         140.4740  140.3408  167.5144 C.3     1  UNL1        0.0074
     23 C         141.9286  140.2823  167.8758 C.3     1  UNL1        0.0167
     24 C         142.3395  139.9708  169.2844 C.3     1  UNL1        0.0074
     25 C         141.2958  139.7177  170.3316 C.3     1  UNL1        0.0447
     26 C         136.3589  138.6947  171.3598 C.3     1  UNL1        0.2885
     27 O         137.3428  139.5817  170.6560 O.2     1  UNL1       -0.3737
     28 C         140.8104  146.3107  155.5938 C.3     1  UNL1        0.4188
     29 F         140.4574  147.0748  154.3522 F       1  UNL1       -0.1659
     30 F         141.7744  145.4748  154.8052 F       1  UNL1       -0.1659
     31 F         139.8464  147.1466  156.3824 F       1  UNL1       -0.1659
     32 N         143.5479  142.5782  157.9548 N.pl3   1  UNL1        0.0814
     33 O         143.1176  141.1790  157.6277 O.2     1  UNL1        0.0415
     34 O         144.9939  142.8753  158.2209 O.co2   1  UNL1       -0.5760
@<TRIPOS>UNITY_ATOM_ATTR
32 1
charge 1
34 1
charge -1
@<TRIPOS>BOND
     1    26    27    1
     2    27    19    1
     3    19    20    2
     4    20    21    1
     5    21    22    1
     6    22    23    1
     7    23    18    1
     8    18    12    1
     9    12    13    1
    10    13    14    1
    11    14    15    1
    12    15     1    1
    13     1     2   ar
    14     2     3   ar
    15     3     4    2
    16     3     5   ar
    17     5     6   ar
    18     6     7   ar
    19     7    28    1
    20    28    29    1
    21    28    30    1
    22    28    31    1
    23     7     8   ar
    24     8     9   ar
    25     9    32    1
    26    32    33    2
    27    32    34    1
    28     9    10   ar
    29    10    11   ar
    30    15    16    1
    31    16    17    1
    32    23    24    1
    33    24    25    1
    34    25    20    1
    35    17    12    1
    36    11     1   ar
    37    10     5   ar
@<TRIPOS>MOLECULE
*****
 34 37 0 0 0
SMALL
GASTEIGER

@<TRIPOS>ATOM
      1 C         140.9312  138.9526  162.8907 C.ar    1  UNL1        0.1665
      2 N         139.5637  139.4781  163.2127 N.ar    1  UNL1       -0.1866
      3 C         139.2100  139.8322  164.6267 C.ar    1  UNL1        0.2814
      4 O         137.8424  140.3577  164.9487 O.2     1  UNL1       -0.2651
      5 C         140.2239  139.6608  165.7188 C.ar    1  UNL1        0.0699
      6 C         139.8702  140.0149  167.1329 C.ar    1  UNL1        0.0096
      7 C         140.8841  139.8435  168.2250 C.ar    1  UNL1        0.0777
      8 C         142.2517  139.3179  167.9030 C.ar    1  UNL1        0.0797
      9 C         142.6053  138.9639  166.4889 C.ar    1  UNL1        0.2960
     10 C         141.5914  139.1353  165.3969 C.ar    1  UNL1        0.1059
     11 S         141.9451  138.7812  163.9828 S.2     1  UNL1       -0.0466
     12 N         141.9923  137.8903  158.6486 N.3     1  UNL1       -0.2698
     13 C         142.9905  137.6759  159.7476 C.3     1  UNL1        0.0939
     14 C         142.6367  138.0300  161.1616 C.3     1  UNL1        0.1100
     15 N         141.2849  138.5985  161.4766 N.pl3   1  UNL1       -0.2852
     16 C         140.2868  138.8130  160.3777 C.3     1  UNL1        0.1100
     17 C         140.6405  138.4589  158.9636 C.3     1  UNL1        0.0939
     18 C         142.3460  137.5362  157.2346 C.3     1  UNL1        0.0722
     19 N         142.3812  131.7927  155.4994 N.2     1  UNL1       -0.0917
     20 C         142.3724  133.2286  155.9332 C.2     1  UNL1        0.0748
     21 C         143.3027  133.6908  157.0153 C.3     1  UNL1        0.0447
     22 C         143.2939  135.1268  157.4491 C.3     1  UNL1        0.0074
     23 C         142.3548  136.1004  156.8008 C.3     1  UNL1        0.0167
     24 C         141.4246  135.6380  155.7187 C.3     1  UNL1        0.0074
     25 C         141.4334  134.2022  155.2849 C.3     1  UNL1        0.0447
     26 C         144.5856  130.4186  155.4487 C.3     1  UNL1        0.2885
     27 O         143.3203  130.8191  156.1477 O.2     1  UNL1       -0.3737
     28 C         140.5305  140.1975  169.6390 C.3     1  UNL1        0.4188
     29 F         140.1768  140.5516  171.0531 F       1  UNL1       -0.1659
     30 F         141.4097  139.0888  170.1365 F       1  UNL1       -0.1659
     31 F         139.6512  141.3063  169.1415 F       1  UNL1       -0.1659
     32 N         143.9728  138.4384  166.1670 N.pl3   1  UNL1        0.0814
     33 O         144.7924  139.0887  165.0920 O.2     1  UNL1        0.0415
     34 O         144.5209  137.2625  166.9200 O.co2   1  UNL1       -0.5760
@<TRIPOS>UNITY_ATOM_ATTR
32 1
charge 1
34 1
charge -1
@<TRIPOS>BOND
     1    26    27    1
     2    27    19    1
     3    19    20    2
     4    20    21    1
     5    21    22    1
     6    22    23    1
     7    23    18    1
     8    18    12    1
     9    12    13    1
    10    13    14    1
    11    14    15    1
    12    15     1    1
    13     1     2   ar
    14     2     3   ar
    15     3     4    2
    16     3     5   ar
    17     5     6   ar
    18     6     7   ar
    19     7    28    1
    20    28    29    1
    21    28    30    1
    22    28    31    1
    23     7     8   ar
    24     8     9   ar
    25     9    32    1
    26    32    33    2
    27    32    34    1
    28     9    10   ar
    29    10    11   ar
    30    15    16    1
    31    16    17    1
    32    23    24    1
    33    24    25    1
    34    25    20    1
    35    17    12    1
    36    11     1   ar
    37    10     5   ar
@<TRIPOS>MOLECULE
*****
 34 37 0 0 0
SMALL
GASTEIGER

@<TRIPOS>ATOM
      1 C         140.8062  139.0858  162.8557 C.ar    1  UNL1        0.1665
      2 N         139.8060  138.2346  163.5802 N.ar    1  UNL1       -0.1866
      3 C         139.4075  138.5770  164.9851 C.ar    1  UNL1        0.2814
      4 O         138.4072  137.7257  165.7096 O.2     1  UNL1       -0.2651
      5 C         140.0093  139.7706  165.6656 C.ar    1  UNL1        0.0699
      6 C         139.6107  140.1131  167.0706 C.ar    1  UNL1        0.0096
      7 C         140.2125  141.3067  167.7511 C.ar    1  UNL1        0.0777
      8 C         141.2128  142.1580  167.0266 C.ar    1  UNL1        0.0797
      9 C         141.6113  141.8155  165.6216 C.ar    1  UNL1        0.2960
     10 C         141.0095  140.6219  164.9411 C.ar    1  UNL1        0.1059
     11 S         141.4080  140.2794  163.5362 S.2     1  UNL1       -0.0466
     12 N         142.0018  138.0585  158.6407 N.3     1  UNL1       -0.2698
     13 C         143.0024  137.9464  159.7527 C.3     1  UNL1        0.0939
     14 C         142.6038  138.2888  161.1576 C.3     1  UNL1        0.1100
     15 N         141.2047  138.7434  161.4507 N.pl3   1  UNL1       -0.2852
     16 C         140.2042  138.8555  160.3388 C.3     1  UNL1        0.1100
     17 C         140.6027  138.5131  158.9338 C.3     1  UNL1        0.0939
     18 C         142.4004  137.7161  157.2358 C.3     1  UNL1        0.0722
     19 N         142.1344  132.0285  155.3437 N.2     1  UNL1       -0.0917
     20 C         142.2009  133.4504  155.8167 C.2     1  UNL1        0.0748
     21 C         143.1880  133.8432  156.8756 C.3     1  UNL1        0.0447
     22 C         143.2546  135.2651  157.3486 C.3     1  UNL1        0.0074
     23 C         142.3339  136.2943  156.7628 C.3     1  UNL1        0.0167
     24 C         141.3466  135.9014  155.7039 C.3     1  UNL1        0.0074
     25 C         141.2802  134.4796  155.2309 C.3     1  UNL1        0.0447
     26 C         144.3458  130.6687  155.2404 C.3     1  UNL1        0.2885
     27 O         143.0551  130.9994  155.9295 O.2     1  UNL1       -0.3737
     28 C         139.8140  141.6491  169.1560 C.3     1  UNL1        0.4188
     29 F         139.4155  141.9915  170.5611 F       1  UNL1       -0.1659
     30 F         139.4524  140.2145  169.4031 F       1  UNL1       -0.1659
     31 F         140.1757  143.0837  168.9090 F       1  UNL1       -0.1659
     32 N         142.6115  142.6667  164.8972 N.pl3   1  UNL1        0.0814
     33 O         142.1466  143.8165  164.0533 O.2     1  UNL1        0.0415
     34 O         144.0767  142.3683  165.0165 O.co2   1  UNL1       -0.5760
@<TRIPOS>UNITY_ATOM_ATTR
32 1
charge 1
34 1
charge -1
@<TRIPOS>BOND
     1    26    27    1
     2    27    19    1
     3    19    20    2
     4    20    21    1
     5    21    22    1
     6    22    23    1
     7    23    18    1
     8    18    12    1
     9    12    13    1
    10    13    14    1
    11    14    15    1
    12    15     1    1
    13     1     2   ar
    14     2     3   ar
    15     3     4    2
    16     3     5   ar
    17     5     6   ar
    18     6     7   ar
    19     7    28    1
    20    28    29    1
    21    28    30    1
    22    28    31    1
    23     7     8   ar
    24     8     9   ar
    25     9    32    1
    26    32    33    2
    27    32    34    1
    28     9    10   ar
    29    10    11   ar
    30    15    16    1
    31    16    17    1
    32    23    24    1
    33    24    25    1
    34    25    20    1
    35    17    12    1
    36    11     1   ar
    37    10     5   ar
@<TRIPOS>MOLECULE
*****
 34 37 0 0 0
SMALL
GASTEIGER

@<TRIPOS>ATOM
      1 C         140.3312  140.6685  159.5923 C.ar    1  UNL1        0.1665
      2 N         140.1537  142.1066  159.2048 N.ar    1  UNL1       -0.1866
      3 C         139.7864  143.1236  160.2443 C.ar    1  UNL1        0.2814
      4 O         139.6089  144.5618  159.8568 O.2     1  UNL1       -0.2651
      5 C         139.5964  142.7024  161.6714 C.ar    1  UNL1        0.0699
      6 C         139.2290  143.7195  162.7110 C.ar    1  UNL1        0.0096
      7 C         139.0391  143.2984  164.1380 C.ar    1  UNL1        0.0777
      8 C         139.2166  141.8602  164.5256 C.ar    1  UNL1        0.0797
      9 C         139.5839  140.8432  163.4860 C.ar    1  UNL1        0.2960
     10 C         139.7739  141.2643  162.0589 C.ar    1  UNL1        0.1059
     11 S         140.1413  140.2473  161.0194 S.2     1  UNL1       -0.0466
     12 N         141.4334  137.6173  156.4736 N.3     1  UNL1       -0.2698
     13 C         142.4455  138.6286  156.9242 C.3     1  UNL1        0.0939
     14 C         142.0781  139.6456  157.9637 C.3     1  UNL1        0.1100
     15 N         140.6986  139.6514  158.5527 N.pl3   1  UNL1       -0.2852
     16 C         139.6865  138.6401  158.1022 C.3     1  UNL1        0.1100
     17 C         140.0539  137.6230  157.0626 C.3     1  UNL1        0.0939
     18 C         141.8009  136.6003  155.4341 C.3     1  UNL1        0.0722
     19 N         143.2939  131.0283  157.0845 N.2     1  UNL1       -0.0917
     20 C         142.9207  132.4213  156.6719 C.2     1  UNL1        0.0748
     21 C         143.6622  133.5955  157.2388 C.3     1  UNL1        0.0447
     22 C         143.2890  134.9885  156.8262 C.3     1  UNL1        0.0074
     23 C         142.1741  135.2073  155.8467 C.3     1  UNL1        0.0167
     24 C         141.4326  134.0330  155.2799 C.3     1  UNL1        0.0074
     25 C         141.8058  132.6401  155.6925 C.3     1  UNL1        0.0447
     26 C         144.6910  129.4309  158.5833 C.3     1  UNL1        0.2885
     27 O         144.4087  130.8095  158.0640 O.2     1  UNL1       -0.3737
     28 C         138.6717  144.3154  165.1776 C.3     1  UNL1        0.4188
     29 F         138.3043  145.3325  166.2172 F       1  UNL1       -0.1659
     30 F         137.4024  144.6145  164.4364 F       1  UNL1       -0.1659
     31 F         139.9410  144.0163  165.9187 F       1  UNL1       -0.1659
     32 N         139.7614  139.4050  163.8735 N.pl3   1  UNL1        0.0814
     33 O         138.5973  138.4613  163.8074 O.2     1  UNL1        0.0415
     34 O         141.1029  138.9106  164.3273 O.co2   1  UNL1       -0.5760
@<TRIPOS>UNITY_ATOM_ATTR
32 1
charge 1
34 1
charge -1
@<TRIPOS>BOND
     1    26    27    1
     2    27    19    1
     3    19    20    2
     4    20    21    1
     5    21    22    1
     6    22    23    1
     7    23    18    1
     8    18    12    1
     9    12    13    1
    10    13    14    1
    11    14    15    1
    12    15     1    1
    13     1     2   ar
    14     2     3   ar
    15     3     4    2
    16     3     5   ar
    17     5     6   ar
    18     6     7   ar
    19     7    28    1
    20    28    29    1
    21    28    30    1
    22    28    31    1
    23     7     8   ar
    24     8     9   ar
    25     9    32    1
    26    32    33    2
    27    32    34    1
    28     9    10   ar
    29    10    11   ar
    30    15    16    1
    31    16    17    1
    32    23    24    1
    33    24    25    1
    34    25    20    1
    35    17    12    1
    36    11     1   ar
    37    10     5   ar
@<TRIPOS>MOLECULE
*****
 34 37 0 0 0
SMALL
GASTEIGER

@<TRIPOS>ATOM
      1 C         142.2837  139.0973  163.6025 C.ar    1  UNL1        0.1665
      2 N         143.2762  138.3905  164.4773 N.ar    1  UNL1       -0.1866
      3 C         143.1955  138.5312  165.9685 C.ar    1  UNL1        0.2814
      4 O         144.1880  137.8243  166.8434 O.2     1  UNL1       -0.2651
      5 C         142.1223  139.3787  166.5848 C.ar    1  UNL1        0.0699
      6 C         142.0416  139.5194  168.0761 C.ar    1  UNL1        0.0096
      7 C         140.9683  140.3669  168.6924 C.ar    1  UNL1        0.0777
      8 C         139.9758  141.0738  167.8175 C.ar    1  UNL1        0.0797
      9 C         140.0566  140.9331  166.3264 C.ar    1  UNL1        0.2960
     10 C         141.1298  140.0855  165.7100 C.ar    1  UNL1        0.1059
     11 S         141.2105  139.9448  164.2188 S.2     1  UNL1       -0.0466
     12 N         142.5259  138.6753  159.1288 N.3     1  UNL1       -0.2698
     13 C         143.7220  139.1429  159.9039 C.3     1  UNL1        0.0939
     14 C         143.6413  139.2835  161.3951 C.3     1  UNL1        0.1100
     15 N         142.3645  138.9566  162.1112 N.pl3   1  UNL1       -0.2852
     16 C         141.1684  138.4890  161.3362 C.3     1  UNL1        0.1100
     17 C         141.2491  138.3483  159.8449 C.3     1  UNL1        0.0939
     18 C         142.6067  138.5346  157.6376 C.3     1  UNL1        0.0722
     19 N         141.6026  133.2064  155.0683 N.2     1  UNL1       -0.0917
     20 C         141.8536  134.5384  155.7106 C.2     1  UNL1        0.0748
     21 C         142.9637  134.6930  156.7075 C.3     1  UNL1        0.0447
     22 C         143.2147  136.0251  157.3499 C.3     1  UNL1        0.0074
     23 C         142.3557  137.2025  156.9953 C.3     1  UNL1        0.0167
     24 C         141.2456  137.0479  155.9984 C.3     1  UNL1        0.0074
     25 C         140.9946  135.7158  155.3560 C.3     1  UNL1        0.0447
     26 C         143.1713  131.2662  154.3436 C.3     1  UNL1        0.2885
     27 O         142.4617  132.0290  155.4229 O.2     1  UNL1       -0.3737
     28 C         140.8876  140.5076  170.1836 C.3     1  UNL1        0.4188
     29 F         140.8068  140.6484  171.6748 F       1  UNL1       -0.1659
     30 F         140.5043  141.9493  170.0268 F       1  UNL1       -0.1659
     31 F         141.2709  139.0660  170.3404 F       1  UNL1       -0.1659
     32 N         139.0641  141.6399  165.4515 N.pl3   1  UNL1        0.0814
     33 O         137.9107  140.8830  164.8625 O.2     1  UNL1        0.0415
     34 O         139.2249  143.1036  165.1657 O.co2   1  UNL1       -0.5760
@<TRIPOS>UNITY_ATOM_ATTR
32 1
charge 1
34 1
charge -1
@<TRIPOS>BOND
     1    26    27    1
     2    27    19    1
     3    19    20    2
     4    20    21    1
     5    21    22    1
     6    22    23    1
     7    23    18    1
     8    18    12    1
     9    12    13    1
    10    13    14    1
    11    14    15    1
    12    15     1    1
    13     1     2   ar
    14     2     3   ar
    15     3     4    2
    16     3     5   ar
    17     5     6   ar
    18     6     7   ar
    19     7    28    1
    20    28    29    1
    21    28    30    1
    22    28    31    1
    23     7     8   ar
    24     8     9   ar
    25     9    32    1
    26    32    33    2
    27    32    34    1
    28     9    10   ar
    29    10    11   ar
    30    15    16    1
    31    16    17    1
    32    23    24    1
    33    24    25    1
    34    25    20    1
    35    17    12    1
    36    11     1   ar
    37    10     5   ar
@<TRIPOS>MOLECULE
*****
 34 37 0 0 0
SMALL
GASTEIGER

@<TRIPOS>ATOM
      1 C         139.0319  142.7112  160.6519 C.ar    1  UNL1        0.1665
      2 N         138.5091  143.6167  161.7273 N.ar    1  UNL1       -0.1866
      3 C         138.2607  143.0789  163.1054 C.ar    1  UNL1        0.2814
      4 O         137.7379  143.9844  164.1809 O.2     1  UNL1       -0.2651
      5 C         138.5351  141.6355  163.4079 C.ar    1  UNL1        0.0699
      6 C         138.2866  141.0978  164.7860 C.ar    1  UNL1        0.0096
      7 C         138.5610  139.6544  165.0886 C.ar    1  UNL1        0.0777
      8 C         139.0838  138.7489  164.0130 C.ar    1  UNL1        0.0797
      9 C         139.3322  139.2867  162.6350 C.ar    1  UNL1        0.2960
     10 C         139.0579  140.7300  162.3324 C.ar    1  UNL1        0.1059
     11 S         139.3063  141.2678  160.9544 S.2     1  UNL1       -0.0466
     12 N         139.7773  144.3245  156.5176 N.3     1  UNL1       -0.2698
     13 C         138.7044  143.3002  156.7409 C.3     1  UNL1        0.0939
     14 C         138.4560  142.7624  158.1189 C.3     1  UNL1        0.1100
     15 N         139.2804  143.2490  159.2738 N.pl3   1  UNL1       -0.2852
     16 C         140.3532  144.2732  159.0505 C.3     1  UNL1        0.1100
     17 C         140.6017  144.8110  157.6724 C.3     1  UNL1        0.0939
     18 C         140.0257  144.8622  155.1395 C.3     1  UNL1        0.0722
     19 N         139.4309  150.7339  154.0582 N.2     1  UNL1       -0.0917
     20 C         139.5796  149.2660  154.3285 C.2     1  UNL1        0.0748
     21 C         138.8038  148.6260  155.4414 C.3     1  UNL1        0.0447
     22 C         138.9525  147.1580  155.7117 C.3     1  UNL1        0.0074
     23 C         139.8770  146.3301  154.8692 C.3     1  UNL1        0.0167
     24 C         140.6529  146.9702  153.7563 C.3     1  UNL1        0.0074
     25 C         140.5042  148.4381  153.4860 C.3     1  UNL1        0.0447
     26 C         138.4885  153.0541  154.7500 C.3     1  UNL1        0.2885
     27 O         138.5064  151.5618  154.9007 O.2     1  UNL1       -0.3737
     28 C         138.3125  139.1166  166.4666 C.3     1  UNL1        0.4188
     29 F         138.0641  138.5787  167.8447 F       1  UNL1       -0.1659
     30 F         137.7482  137.8595  165.8742 F       1  UNL1       -0.1659
     31 F         138.8769  140.3738  167.0590 F       1  UNL1       -0.1659
     32 N         139.8551  138.3812  161.5595 N.pl3   1  UNL1        0.0814
     33 O         139.0405  138.1358  160.3241 O.2     1  UNL1        0.0415
     34 O         141.1924  137.7210  161.7195 O.co2   1  UNL1       -0.5760
@<TRIPOS>UNITY_ATOM_ATTR
32 1
charge 1
34 1
charge -1
@<TRIPOS>BOND
     1    26    27    1
     2    27    19    1
     3    19    20    2
     4    20    21    1
     5    21    22    1
     6    22    23    1
     7    23    18    1
     8    18    12    1
     9    12    13    1
    10    13    14    1
    11    14    15    1
    12    15     1    1
    13     1     2   ar
    14     2     3   ar
    15     3     4    2
    16     3     5   ar
    17     5     6   ar
    18     6     7   ar
    19     7    28    1
    20    28    29    1
    21    28    30    1
    22    28    31    1
    23     7     8   ar
    24     8     9   ar
    25     9    32    1
    26    32    33    2
    27    32    34    1
    28     9    10   ar
    29    10    11   ar
    30    15    16    1
    31    16    17    1
    32    23    24    1
    33    24    25    1
    34    25    20    1
    35    17    12    1
    36    11     1   ar
    37    10     5   ar
@<TRIPOS>MOLECULE
*****
 34 37 0 0 0
SMALL
GASTEIGER

@<TRIPOS>ATOM
      1 C         141.3753  144.1593  160.4576 C.ar    1  UNL1        0.1665
      2 N         142.7942  144.0526  160.9324 N.ar    1  UNL1       -0.1866
      3 C         143.0836  143.6243  162.3405 C.ar    1  UNL1        0.2814
      4 O         144.5025  143.5175  162.8153 O.2     1  UNL1       -0.2651
      5 C         141.9542  143.3027  163.2738 C.ar    1  UNL1        0.0699
      6 C         142.2437  142.8743  164.6819 C.ar    1  UNL1        0.0096
      7 C         141.1143  142.5528  165.6152 C.ar    1  UNL1        0.0777
      8 C         139.6954  142.6595  165.1403 C.ar    1  UNL1        0.0797
      9 C         139.4059  143.0879  163.7322 C.ar    1  UNL1        0.2960
     10 C         140.5354  143.4094  162.7990 C.ar    1  UNL1        0.1059
     11 S         140.2459  143.8378  161.3909 S.2     1  UNL1       -0.0466
     12 N         140.5069  145.4443  156.2332 N.3     1  UNL1       -0.2698
     13 C         139.6118  144.4518  156.9144 C.3     1  UNL1        0.0939
     14 C         139.9013  144.0235  158.3224 C.3     1  UNL1        0.1100
     15 N         141.0859  144.5877  159.0495 N.pl3   1  UNL1       -0.2852
     16 C         141.9809  145.5802  158.3684 C.3     1  UNL1        0.1100
     17 C         141.6914  146.0085  156.9603 C.3     1  UNL1        0.0939
     18 C         140.2174  145.8726  154.8252 C.3     1  UNL1        0.0722
     19 N         139.1700  151.6526  153.6030 N.2     1  UNL1       -0.0917
     20 C         139.4318  150.2077  153.9085 C.2     1  UNL1        0.0748
     21 C         138.8404  149.5817  155.1366 C.3     1  UNL1        0.0447
     22 C         139.1023  148.1366  155.4422 C.3     1  UNL1        0.0074
     23 C         139.9555  147.3176  154.5196 C.3     1  UNL1        0.0167
     24 C         140.5469  147.9437  153.2914 C.3     1  UNL1        0.0074
     25 C         140.2851  149.3886  152.9859 C.3     1  UNL1        0.0447
     26 C         138.6700  153.9033  154.8007 C.3     1  UNL1        0.2885
     27 O         138.3167  152.4717  154.5256 O.2     1  UNL1       -0.3737
     28 C         141.4037  142.1244  167.0233 C.3     1  UNL1        0.4188
     29 F         141.6931  141.6961  168.4314 F       1  UNL1       -0.1659
     30 F         140.3830  143.0999  167.5298 F       1  UNL1       -0.1659
     31 F         142.4244  141.1490  166.5167 F       1  UNL1       -0.1659
     32 N         137.9871  143.1946  163.2574 N.pl3   1  UNL1        0.0814
     33 O         137.2523  141.9666  162.8076 O.2     1  UNL1        0.0415
     34 O         137.3030  144.5293  163.2325 O.co2   1  UNL1       -0.5760
@<TRIPOS>UNITY_ATOM_ATTR
32 1
charge 1
34 1
charge -1
@<TRIPOS>BOND
     1    26    27    1
     2    27    19    1
     3    19    20    2
     4    20    21    1
     5    21    22    1
     6    22    23    1
     7    23    18    1
     8    18    12    1
     9    12    13    1
    10    13    14    1
    11    14    15    1
    12    15     1    1
    13     1     2   ar
    14     2     3   ar
    15     3     4    2
    16     3     5   ar
    17     5     6   ar
    18     6     7   ar
    19     7    28    1
    20    28    29    1
    21    28    30    1
    22    28    31    1
    23     7     8   ar
    24     8     9   ar
    25     9    32    1
    26    32    33    2
    27    32    34    1
    28     9    10   ar
    29    10    11   ar
    30    15    16    1
    31    16    17    1
    32    23    24    1
    33    24    25    1
    34    25    20    1
    35    17    12    1
    36    11     1   ar
    37    10     5   ar
@<TRIPOS>MOLECULE
*****
 34 37 0 0 0
SMALL
GASTEIGER

@<TRIPOS>ATOM
      1 C         141.9527  140.9292  159.8284 C.ar    1  UNL1        0.1665
      2 N         142.7092  142.1939  160.1083 N.ar    1  UNL1       -0.1866
      3 C         142.2144  143.1477  161.1549 C.ar    1  UNL1        0.2814
      4 O         142.9709  144.4124  161.4348 O.2     1  UNL1       -0.2651
      5 C         140.9632  142.8369  161.9216 C.ar    1  UNL1        0.0699
      6 C         140.4684  143.7909  162.9682 C.ar    1  UNL1        0.0096
      7 C         139.2172  143.4801  163.7348 C.ar    1  UNL1        0.0777
      8 C         138.4607  142.2153  163.4549 C.ar    1  UNL1        0.0797
      9 C         138.9554  141.2615  162.4083 C.ar    1  UNL1        0.2960
     10 C         140.2067  141.5723  161.6417 C.ar    1  UNL1        0.1059
     11 S         140.7014  140.6184  160.5951 S.2     1  UNL1       -0.0466
     12 N         143.4369  138.0675  156.6887 N.3     1  UNL1       -0.2698
     13 C         142.6388  137.5570  157.8517 C.3     1  UNL1        0.0939
     14 C         142.1441  138.5109  158.8982 C.3     1  UNL1        0.1100
     15 N         142.4474  139.9753  158.7818 N.pl3   1  UNL1       -0.2852
     16 C         143.2455  140.4858  157.6189 C.3     1  UNL1        0.1100
     17 C         143.7402  139.5318  156.5723 C.3     1  UNL1        0.0939
     18 C         143.9316  137.1135  155.6421 C.3     1  UNL1        0.0722
     19 N         141.3452  131.7353  155.0222 N.2     1  UNL1       -0.0917
     20 C         141.9918  133.0798  155.1772 C.2     1  UNL1        0.0748
     21 C         143.1742  133.2432  156.0855 C.3     1  UNL1        0.0447
     22 C         143.8208  134.5878  156.2405 C.3     1  UNL1        0.0074
     23 C         143.2850  135.7690  155.4872 C.3     1  UNL1        0.0167
     24 C         142.1025  135.6056  154.5788 C.3     1  UNL1        0.0074
     25 C         141.4559  134.2611  154.4238 C.3     1  UNL1        0.0447
     26 C         141.6915  129.1689  155.2318 C.3     1  UNL1        0.2885
     27 O         141.8810  130.5541  155.7756 O.2     1  UNL1       -0.3737
     28 C         138.7224  144.4339  164.7814 C.3     1  UNL1        0.4188
     29 F         138.2276  145.3878  165.8280 F       1  UNL1       -0.1659
     30 F         137.4128  143.7040  164.8275 F       1  UNL1       -0.1659
     31 F         140.0320  145.1638  164.7353 F       1  UNL1       -0.1659
     32 N         138.1989  139.9969  162.1285 N.pl3   1  UNL1        0.0814
     33 O         138.3692  138.8068  163.0257 O.2     1  UNL1        0.0415
     34 O         137.2722  139.9222  160.9514 O.co2   1  UNL1       -0.5760
@<TRIPOS>UNITY_ATOM_ATTR
32 1
charge 1
34 1
charge -1
@<TRIPOS>BOND
     1    26    27    1
     2    27    19    1
     3    19    20    2
     4    20    21    1
     5    21    22    1
     6    22    23    1
     7    23    18    1
     8    18    12    1
     9    12    13    1
    10    13    14    1
    11    14    15    1
    12    15     1    1
    13     1     2   ar
    14     2     3   ar
    15     3     4    2
    16     3     5   ar
    17     5     6   ar
    18     6     7   ar
    19     7    28    1
    20    28    29    1
    21    28    30    1
    22    28    31    1
    23     7     8   ar
    24     8     9   ar
    25     9    32    1
    26    32    33    2
    27    32    34    1
    28     9    10   ar
    29    10    11   ar
    30    15    16    1
    31    16    17    1
    32    23    24    1
    33    24    25    1
    34    25    20    1
    35    17    12    1
    36    11     1   ar
    37    10     5   ar
