@<TRIPOS>MOLECULE
*****
 36 39 0 0 0
SMALL
GASTEIGER

@<TRIPOS>ATOM
      1 N         140.7112  138.2480  160.7656 N.am    1  UNL1       -0.3018
      2 C         142.0141  138.5891  160.1052 C.2     1  UNL1        0.2425
      3 O         143.0996  139.2629  160.8910 O.2     1  UNL1       -0.2733
      4 H         139.9988  137.8058  160.2498 H       1  UNL1        0.1495
      5 N         140.1866  139.0518  164.2575 N.3     1  UNL1       -0.2711
      6 C         140.2453  139.8427  162.9843 C.3     1  UNL1        0.0933
      7 C         140.4940  138.5809  162.2120 C.3     1  UNL1        0.1035
      8 C         140.4353  137.7901  163.4852 C.3     1  UNL1        0.0933
      9 C         139.5347  140.0503  168.5966 C.3     1  UNL1        0.0992
     10 C         138.4226  139.4477  167.7904 C.3     1  UNL1        0.0125
     11 C         138.6399  139.1149  166.3440 C.3     1  UNL1        0.0165
     12 C         139.9693  139.3846  165.7039 C.3     1  UNL1        0.0576
     13 C         141.0815  139.9872  166.5101 C.3     1  UNL1        0.0165
     14 C         140.8642  140.3201  167.9564 C.3     1  UNL1        0.0125
     15 C         139.3176  140.3832  170.0429 C.2     1  UNL1        0.3164
     16 O         139.4184  139.3076  171.0836 O.2     1  UNL1       -0.2501
     17 O         138.9995  141.7919  170.4488 O.3     1  UNL1       -0.4485
     18 C         140.4312  143.8777  169.8574 C.3     1  UNL1        0.0513
     19 C         140.1086  142.7441  170.7852 C.3     1  UNL1        0.2086
     20 C         142.2314  138.2562  158.6588 C.3     1  UNL1        0.1747
     21 N         143.0754  137.0755  158.2795 N.pl3   1  UNL1       -0.3093
     22 H         143.8061  136.7825  158.8706 H       1  UNL1        0.1487
     23 C         142.8060  136.3413  156.9995 C.ar    1  UNL1        0.1500
     24 N         142.1283  136.9047  155.7857 N.ar    1  UNL1       -0.1544
     25 N         142.0704  135.8263  154.7447 N.ar    1  UNL1       -0.2476
     26 C         141.4752  135.9551  153.3739 C.3     1  UNL1        0.1537
     27 C         142.7124  134.5964  155.3151 C.ar    1  UNL1        0.0807
     28 C         142.9417  133.2278  154.7456 C.ar    1  UNL1        0.0188
     29 C         143.6256  132.1775  155.5697 C.ar    1  UNL1        0.0054
     30 C         144.0802  132.4958  156.9632 C.ar    1  UNL1        0.0716
     31 C         143.8508  133.8644  157.5328 C.ar    1  UNL1        0.0082
     32 C         143.1670  134.9147  156.7087 C.ar    1  UNL1        0.0503
     33 C         144.7641  131.4455  157.7873 C.3     1  UNL1        0.4186
     34 F         145.4479  130.3951  158.6113 F       1  UNL1       -0.1659
     35 F         145.8285  132.4333  158.1631 F       1  UNL1       -0.1659
     36 F         143.6997  130.4576  157.4115 F       1  UNL1       -0.1659
@<TRIPOS>BOND
     1    18    19    1
     2    19    17    1
     3    17    15    1
     4    15    16    2
     5     9    15    1
     6     9    10    1
     7    10    11    1
     8    11    12    1
     9    12     5    1
    10     5     6    1
    11     6     7    1
    12     7     1    1
    13     1     2   am
    14     2     3    2
    15     2    20    1
    16    20    21    1
    17    21    23    1
    18    23    24   ar
    19    24    25   ar
    20    25    26    1
    21    25    27   ar
    22    27    28   ar
    23    28    29   ar
    24    29    30   ar
    25    30    33    1
    26    33    34    1
    27    33    35    1
    28    33    36    1
    29    30    31   ar
    30    31    32   ar
    31     7     8    1
    32    12    13    1
    33    13    14    1
    34    14     9    1
    35     8     5    1
    36    32    23   ar
    37    32    27   ar
    38     1     4    1
    39    21    22    1
@<TRIPOS>MOLECULE
*****
 36 39 0 0 0
SMALL
GASTEIGER

@<TRIPOS>ATOM
      1 N         142.5043  137.6805  160.9742 N.am    1  UNL1       -0.3018
      2 C         141.8580  138.4090  159.8334 C.2     1  UNL1        0.2425
      3 O         140.9346  139.5594  160.1050 O.2     1  UNL1       -0.2733
      4 H         143.1104  136.9254  160.7959 H       1  UNL1        0.1495
      5 N         141.8350  138.6990  164.3843 N.3     1  UNL1       -0.2711
      6 C         141.2505  137.6851  163.4461 C.3     1  UNL1        0.0933
      7 C         142.2271  138.1024  162.3867 C.3     1  UNL1        0.1035
      8 C         142.8115  139.1163  163.3249 C.3     1  UNL1        0.0933
      9 C         141.0033  139.9648  168.6218 C.3     1  UNL1        0.0992
     10 C         142.3818  139.5243  168.2275 C.3     1  UNL1        0.0125
     11 C         142.6591  139.1023  166.8150 C.3     1  UNL1        0.0165
     12 C         141.5577  139.1210  165.7968 C.3     1  UNL1        0.0576
     13 C         140.1792  139.5615  166.1911 C.3     1  UNL1        0.0165
     14 C         139.9019  139.9834  167.6035 C.3     1  UNL1        0.0125
     15 C         140.7259  140.3867  170.0342 C.2     1  UNL1        0.3164
     16 O         139.5783  139.7810  170.7864 O.2     1  UNL1       -0.2501
     17 O         141.5964  141.4146  170.6945 O.3     1  UNL1       -0.4485
     18 C         140.5194  143.5389  169.6565 C.3     1  UNL1        0.0513
     19 C         141.7387  142.7788  170.0874 C.3     1  UNL1        0.2086
     20 C         142.1353  137.9871  158.4209 C.3     1  UNL1        0.1747
     21 N         142.9903  136.7843  158.1515 N.pl3   1  UNL1       -0.3093
     22 H         143.6537  136.4927  158.8179 H       1  UNL1        0.1487
     23 C         142.8344  136.0260  156.8667 C.ar    1  UNL1        0.1500
     24 N         142.2384  136.5564  155.5965 N.ar    1  UNL1       -0.1544
     25 N         142.2829  135.4622  154.5714 N.ar    1  UNL1       -0.2476
     26 C         141.7903  135.5579  153.1578 C.3     1  UNL1        0.1537
     27 C         142.9065  134.2556  155.2080 C.ar    1  UNL1        0.0807
     28 C         143.2079  132.8847  154.6793 C.ar    1  UNL1        0.0188
     29 C         143.8502  131.8622  155.5691 C.ar    1  UNL1        0.0054
     30 C         144.1911  132.2106  156.9877 C.ar    1  UNL1        0.0716
     31 C         143.8897  133.5815  157.5164 C.ar    1  UNL1        0.0082
     32 C         143.2473  134.6040  156.6266 C.ar    1  UNL1        0.0503
     33 C         144.8335  131.1880  157.8775 C.3     1  UNL1        0.4186
     34 F         145.4758  130.1655  158.7673 F       1  UNL1       -0.1659
     35 F         143.7061  130.2383  157.6001 F       1  UNL1       -0.1659
     36 F         145.9609  132.1377  158.1550 F       1  UNL1       -0.1659
@<TRIPOS>BOND
     1    18    19    1
     2    19    17    1
     3    17    15    1
     4    15    16    2
     5     9    15    1
     6     9    10    1
     7    10    11    1
     8    11    12    1
     9    12     5    1
    10     5     6    1
    11     6     7    1
    12     7     1    1
    13     1     2   am
    14     2     3    2
    15     2    20    1
    16    20    21    1
    17    21    23    1
    18    23    24   ar
    19    24    25   ar
    20    25    26    1
    21    25    27   ar
    22    27    28   ar
    23    28    29   ar
    24    29    30   ar
    25    30    33    1
    26    33    34    1
    27    33    35    1
    28    33    36    1
    29    30    31   ar
    30    31    32   ar
    31     7     8    1
    32    12    13    1
    33    13    14    1
    34    14     9    1
    35     8     5    1
    36    32    23   ar
    37    32    27   ar
    38     1     4    1
    39    21    22    1
@<TRIPOS>MOLECULE
*****
 36 39 0 0 0
SMALL
GASTEIGER

@<TRIPOS>ATOM
      1 N         143.1115  137.8471  161.6505 N.am    1  UNL1       -0.3018
      2 C         142.2247  137.9559  160.4457 C.2     1  UNL1        0.2425
      3 O         140.8211  138.4646  160.5910 O.2     1  UNL1       -0.2733
      4 H         144.0328  137.5132  161.5551 H       1  UNL1        0.1495
      5 N         141.8641  138.8131  164.9101 N.3     1  UNL1       -0.2711
      6 C         142.7980  139.4243  163.9080 C.3     1  UNL1        0.0933
      7 C         142.5948  138.2472  163.0006 C.3     1  UNL1        0.1035
      8 C         141.6609  137.6360  164.0027 C.3     1  UNL1        0.0933
      9 C         140.3138  140.0133  168.9606 C.3     1  UNL1        0.0992
     10 C         139.3762  139.9318  167.7926 C.3     1  UNL1        0.0125
     11 C         139.8929  139.5317  166.4425 C.3     1  UNL1        0.0165
     12 C         141.3473  139.2131  166.2602 C.3     1  UNL1        0.0576
     13 C         142.2850  139.2947  167.4282 C.3     1  UNL1        0.0165
     14 C         141.7683  139.6947  168.7783 C.3     1  UNL1        0.0125
     15 C         139.7972  140.4133  170.3107 C.2     1  UNL1        0.3164
     16 O         139.2570  139.3723  171.2458 O.2     1  UNL1       -0.2501
     17 O         139.8208  141.8546  170.7259 O.3     1  UNL1       -0.4485
     18 C         141.8351  143.3224  169.9921 C.3     1  UNL1        0.0513
     19 C         140.4104  142.8886  169.8130 C.3     1  UNL1        0.2086
     20 C         142.7414  137.5558  159.0955 C.3     1  UNL1        0.1747
     21 N         143.3800  138.5789  158.2035 N.pl3   1  UNL1       -0.3093
     22 H         144.1440  138.3284  157.6353 H       1  UNL1        0.1487
     23 C         142.8545  139.9836  158.1772 C.ar    1  UNL1        0.1500
     24 N         141.9596  140.5706  157.1263 N.ar    1  UNL1       -0.1544
     25 N         141.6837  141.9977  157.4969 N.ar    1  UNL1       -0.2476
     26 C         140.8328  142.9608  156.7233 C.3     1  UNL1        0.1537
     27 C         142.4081  142.2927  158.7768 C.ar    1  UNL1        0.0807
     28 C         142.5024  143.5339  159.6137 C.ar    1  UNL1        0.0188
     29 C         143.3202  143.5303  160.8711 C.ar    1  UNL1        0.0054
     30 C         144.0438  142.2855  161.2915 C.ar    1  UNL1        0.0716
     31 C         143.9496  141.0443  160.4547 C.ar    1  UNL1        0.0082
     32 C         143.1317  141.0478  159.1973 C.ar    1  UNL1        0.0503
     33 C         144.8617  142.2819  162.5490 C.3     1  UNL1        0.4186
     34 F         145.6796  142.2783  163.8064 F       1  UNL1       -0.1659
     35 F         144.4476  143.6974  162.8224 F       1  UNL1       -0.1659
     36 F         145.2758  140.8664  162.2756 F       1  UNL1       -0.1659
@<TRIPOS>BOND
     1    18    19    1
     2    19    17    1
     3    17    15    1
     4    15    16    2
     5     9    15    1
     6     9    10    1
     7    10    11    1
     8    11    12    1
     9    12     5    1
    10     5     6    1
    11     6     7    1
    12     7     1    1
    13     1     2   am
    14     2     3    2
    15     2    20    1
    16    20    21    1
    17    21    23    1
    18    23    24   ar
    19    24    25   ar
    20    25    26    1
    21    25    27   ar
    22    27    28   ar
    23    28    29   ar
    24    29    30   ar
    25    30    33    1
    26    33    34    1
    27    33    35    1
    28    33    36    1
    29    30    31   ar
    30    31    32   ar
    31     7     8    1
    32    12    13    1
    33    13    14    1
    34    14     9    1
    35     8     5    1
    36    32    23   ar
    37    32    27   ar
    38     1     4    1
    39    21    22    1
@<TRIPOS>MOLECULE
*****
 36 39 0 0 0
SMALL
GASTEIGER

@<TRIPOS>ATOM
      1 N         142.7014  137.8319  160.7937 N.am    1  UNL1       -0.3018
      2 C         142.3097  138.6093  159.5721 C.2     1  UNL1        0.2425
      3 O         141.9738  140.0668  159.6863 O.2     1  UNL1       -0.2733
      4 H         142.9218  136.8754  160.7187 H       1  UNL1        0.1495
      5 N         142.8361  139.4739  164.0186 N.3     1  UNL1       -0.2711
      6 C         141.7862  138.7245  163.2529 C.3     1  UNL1        0.0933
      7 C         142.7572  138.5121  162.1295 C.3     1  UNL1        0.1035
      8 C         143.8070  139.2614  162.8951 C.3     1  UNL1        0.0933
      9 C         143.0036  141.5142  168.0260 C.3     1  UNL1        0.0992
     10 C         143.1853  142.3130  166.7694 C.3     1  UNL1        0.0125
     11 C         143.1295  141.6329  165.4336 C.3     1  UNL1        0.0165
     12 C         142.8919  140.1540  165.3544 C.3     1  UNL1        0.0576
     13 C         142.7102  139.3552  166.6109 C.3     1  UNL1        0.0165
     14 C         142.7660  140.0352  167.9466 C.3     1  UNL1        0.0125
     15 C         143.0594  142.1942  169.3617 C.2     1  UNL1        0.3164
     16 O         144.3639  142.7223  169.8807 O.2     1  UNL1       -0.2501
     17 O         141.8105  142.3462  170.1787 O.3     1  UNL1       -0.4485
     18 C         140.3559  140.2570  170.6976 C.3     1  UNL1        0.0513
     19 C         141.3925  141.2555  171.1198 C.3     1  UNL1        0.2086
     20 C         142.2538  137.9292  158.2363 C.3     1  UNL1        0.1747
     21 N         143.1372  136.7492  157.9580 N.pl3   1  UNL1       -0.3093
     22 H         143.8399  136.4980  158.6001 H       1  UNL1        0.1487
     23 C         142.9498  135.9519  156.7013 C.ar    1  UNL1        0.1500
     24 N         142.3596  136.4554  155.4175 N.ar    1  UNL1       -0.1544
     25 N         142.3648  135.3259  154.4306 N.ar    1  UNL1       -0.2476
     26 C         141.8644  135.3871  153.0178 C.3     1  UNL1        0.1537
     27 C         142.9582  134.1243  155.1044 C.ar    1  UNL1        0.0807
     28 C         143.2160  132.7278  154.6213 C.ar    1  UNL1        0.0188
     29 C         143.8354  131.7183  155.5417 C.ar    1  UNL1        0.0054
     30 C         144.1969  132.1052  156.9451 C.ar    1  UNL1        0.0716
     31 C         143.9391  133.5016  157.4282 C.ar    1  UNL1        0.0082
     32 C         143.3197  134.5112  156.5078 C.ar    1  UNL1        0.0503
     33 C         144.8163  131.0956  157.8655 C.3     1  UNL1        0.4186
     34 F         145.4357  130.0859  158.7859 F       1  UNL1       -0.1659
     35 F         145.9255  132.0571  158.1739 F       1  UNL1       -0.1659
     36 F         143.7071  130.1340  157.5572 F       1  UNL1       -0.1659
@<TRIPOS>BOND
     1    18    19    1
     2    19    17    1
     3    17    15    1
     4    15    16    2
     5     9    15    1
     6     9    10    1
     7    10    11    1
     8    11    12    1
     9    12     5    1
    10     5     6    1
    11     6     7    1
    12     7     1    1
    13     1     2   am
    14     2     3    2
    15     2    20    1
    16    20    21    1
    17    21    23    1
    18    23    24   ar
    19    24    25   ar
    20    25    26    1
    21    25    27   ar
    22    27    28   ar
    23    28    29   ar
    24    29    30   ar
    25    30    33    1
    26    33    34    1
    27    33    35    1
    28    33    36    1
    29    30    31   ar
    30    31    32   ar
    31     7     8    1
    32    12    13    1
    33    13    14    1
    34    14     9    1
    35     8     5    1
    36    32    23   ar
    37    32    27   ar
    38     1     4    1
    39    21    22    1
@<TRIPOS>MOLECULE
*****
 36 39 0 0 0
SMALL
GASTEIGER

@<TRIPOS>ATOM
      1 N         143.1866  137.3165  158.9081 N.am    1  UNL1       -0.3018
      2 C         142.2557  137.8213  157.8459 C.2     1  UNL1        0.2425
      3 O         141.2302  138.8636  158.1807 O.2     1  UNL1       -0.2733
      4 H         143.8596  136.6324  158.6884 H       1  UNL1        0.1495
      5 N         142.9584  138.6142  162.2813 N.3     1  UNL1       -0.2711
      6 C         144.0836  138.2376  161.3636 C.3     1  UNL1        0.0933
      7 C         143.0920  137.8540  160.3053 C.3     1  UNL1        0.1035
      8 C         141.9670  138.2306  161.2231 C.3     1  UNL1        0.0933
      9 C         142.6748  140.2267  166.4729 C.3     1  UNL1        0.0992
     10 C         143.2137  141.0910  165.3717 C.3     1  UNL1        0.0125
     11 C         143.3082  140.5535  163.9745 C.3     1  UNL1        0.0165
     12 C         142.8639  139.1517  163.6785 C.3     1  UNL1        0.0576
     13 C         142.3250  138.2875  164.7797 C.3     1  UNL1        0.0165
     14 C         142.2305  138.8249  166.1768 C.3     1  UNL1        0.0125
     15 C         142.5802  140.7641  167.8701 C.2     1  UNL1        0.3164
     16 O         143.0353  139.9266  169.0283 O.2     1  UNL1       -0.2501
     17 O         142.0305  142.1392  168.1091 O.3     1  UNL1       -0.4485
     18 C         140.2118  143.0111  166.4713 C.3     1  UNL1        0.0513
     19 C         140.5922  142.4356  167.8033 C.3     1  UNL1        0.2086
     20 C         142.3502  137.2838  156.4487 C.3     1  UNL1        0.1747
     21 N         141.7628  135.9433  156.1194 N.pl3   1  UNL1       -0.3093
     22 H         140.8858  135.8857  155.6757 H       1  UNL1        0.1487
     23 C         142.5117  134.6907  156.4661 C.ar    1  UNL1        0.1500
     24 N         143.7067  134.5989  157.3680 N.ar    1  UNL1       -0.1544
     25 N         144.1305  133.1614  157.4310 N.ar    1  UNL1       -0.2476
     26 C         145.2847  132.6162  158.2187 C.3     1  UNL1        0.1537
     27 C         143.1974  132.3648  156.5680 C.ar    1  UNL1        0.0807
     28 C         143.1295  130.9009  156.2482 C.ar    1  UNL1        0.0188
     29 C         142.0612  130.3821  155.3320 C.ar    1  UNL1        0.0054
     30 C         141.0607  131.3273  154.7356 C.ar    1  UNL1        0.0716
     31 C         141.1285  132.7912  155.0554 C.ar    1  UNL1        0.0082
     32 C         142.1969  133.3099  155.9716 C.ar    1  UNL1        0.0503
     33 C         139.9923  130.8085  153.8193 C.3     1  UNL1        0.4186
     34 F         138.9239  130.2897  152.9031 F       1  UNL1       -0.1659
     35 F         140.6809  131.4515  152.6522 F       1  UNL1       -0.1659
     36 F         139.3036  130.1655  154.9865 F       1  UNL1       -0.1659
@<TRIPOS>BOND
     1    18    19    1
     2    19    17    1
     3    17    15    1
     4    15    16    2
     5     9    15    1
     6     9    10    1
     7    10    11    1
     8    11    12    1
     9    12     5    1
    10     5     6    1
    11     6     7    1
    12     7     1    1
    13     1     2   am
    14     2     3    2
    15     2    20    1
    16    20    21    1
    17    21    23    1
    18    23    24   ar
    19    24    25   ar
    20    25    26    1
    21    25    27   ar
    22    27    28   ar
    23    28    29   ar
    24    29    30   ar
    25    30    33    1
    26    33    34    1
    27    33    35    1
    28    33    36    1
    29    30    31   ar
    30    31    32   ar
    31     7     8    1
    32    12    13    1
    33    13    14    1
    34    14     9    1
    35     8     5    1
    36    32    23   ar
    37    32    27   ar
    38     1     4    1
    39    21    22    1
@<TRIPOS>MOLECULE
*****
 36 39 0 0 0
SMALL
GASTEIGER

@<TRIPOS>ATOM
      1 N         141.6353  145.3863  160.2811 N.am    1  UNL1       -0.3018
      2 C         140.4951  145.1150  159.3450 C.2     1  UNL1        0.2425
      3 O         139.3956  144.1800  159.7534 O.2     1  UNL1       -0.2733
      4 H         142.3570  145.9999  160.0130 H       1  UNL1        0.1495
      5 N         141.7333  143.7840  163.5272 N.3     1  UNL1       -0.2711
      6 C         141.5497  145.1923  163.0446 C.3     1  UNL1        0.0933
      7 C         141.6759  144.7225  161.6256 C.3     1  UNL1        0.1035
      8 C         141.8595  143.3142  162.1082 C.3     1  UNL1        0.0933
      9 C         141.8551  141.7928  167.5609 C.3     1  UNL1        0.0992
     10 C         140.5367  142.1377  166.9342 C.3     1  UNL1        0.0125
     11 C         140.4961  142.8014  165.5897 C.3     1  UNL1        0.0165
     12 C         141.7739  143.1202  164.8717 C.3     1  UNL1        0.0576
     13 C         143.0924  142.7753  165.4984 C.3     1  UNL1        0.0165
     14 C         143.1330  142.1116  166.8428 C.3     1  UNL1        0.0125
     15 C         141.8958  141.1291  168.9054 C.2     1  UNL1        0.3164
     16 O         143.1646  140.4918  169.3892 O.2     1  UNL1       -0.2501
     17 O         140.6676  141.1026  169.7662 O.3     1  UNL1       -0.4485
     18 C         140.2585  143.6281  170.2185 C.3     1  UNL1        0.0513
     19 C         140.4002  142.2237  170.7262 C.3     1  UNL1        0.2086
     20 C         140.4545  145.7787  158.0004 C.3     1  UNL1        0.1747
     21 N         140.0201  145.0015  156.7931 N.pl3   1  UNL1       -0.3093
     22 H         139.4085  144.2366  156.8940 H       1  UNL1        0.1487
     23 C         140.5174  145.3899  155.4323 C.ar    1  UNL1        0.1500
     24 N         141.2921  144.5133  154.4934 N.ar    1  UNL1       -0.1544
     25 N         141.5807  145.3046  153.2523 N.ar    1  UNL1       -0.2476
     26 C         142.3335  144.8161  152.0504 C.3     1  UNL1        0.1537
     27 C         140.9845  146.6703  153.4241 C.ar    1  UNL1        0.0807
     28 C         140.9551  147.8726  152.5278 C.ar    1  UNL1        0.0188
     29 C         140.2685  149.1277  152.9788 C.ar    1  UNL1        0.0054
     30 C         139.6113  149.1803  154.3261 C.ar    1  UNL1        0.0716
     31 C         139.6407  147.9780  155.2225 C.ar    1  UNL1        0.0082
     32 C         140.3273  146.7230  154.7714 C.ar    1  UNL1        0.0503
     33 C         138.9247  150.4354  154.7771 C.3     1  UNL1        0.4186
     34 F         138.2381  151.6905  155.2281 F       1  UNL1       -0.1659
     35 F         139.7267  151.2293  153.7890 F       1  UNL1       -0.1659
     36 F         138.1227  149.6416  155.7653 F       1  UNL1       -0.1659
@<TRIPOS>BOND
     1    18    19    1
     2    19    17    1
     3    17    15    1
     4    15    16    2
     5     9    15    1
     6     9    10    1
     7    10    11    1
     8    11    12    1
     9    12     5    1
    10     5     6    1
    11     6     7    1
    12     7     1    1
    13     1     2   am
    14     2     3    2
    15     2    20    1
    16    20    21    1
    17    21    23    1
    18    23    24   ar
    19    24    25   ar
    20    25    26    1
    21    25    27   ar
    22    27    28   ar
    23    28    29   ar
    24    29    30   ar
    25    30    33    1
    26    33    34    1
    27    33    35    1
    28    33    36    1
    29    30    31   ar
    30    31    32   ar
    31     7     8    1
    32    12    13    1
    33    13    14    1
    34    14     9    1
    35     8     5    1
    36    32    23   ar
    37    32    27   ar
    38     1     4    1
    39    21    22    1
@<TRIPOS>MOLECULE
*****
 36 39 0 0 0
SMALL
GASTEIGER

@<TRIPOS>ATOM
      1 N         141.5834  139.1297  161.1823 N.am    1  UNL1       -0.3018
      2 C         142.9825  139.1333  160.6415 C.2     1  UNL1        0.2425
      3 O         144.1457  139.3097  161.5719 O.2     1  UNL1       -0.2733
      4 H         140.8199  139.0139  160.5716 H       1  UNL1        0.1495
      5 N         141.0141  139.5469  164.7342 N.3     1  UNL1       -0.2711
      6 C         141.3544  140.4668  163.5993 C.3     1  UNL1        0.0933
      7 C         141.3476  139.3025  162.6535 C.3     1  UNL1        0.1035
      8 C         141.0073  138.3827  163.7884 C.3     1  UNL1        0.0933
      9 C         140.3068  140.0652  169.1479 C.3     1  UNL1        0.0992
     10 C         141.6975  139.8415  168.6324 C.3     1  UNL1        0.0125
     11 C         141.9333  139.6687  167.1612 C.3     1  UNL1        0.0165
     12 C         140.7783  139.7197  166.2054 C.3     1  UNL1        0.0576
     13 C         139.3876  139.9434  166.7209 C.3     1  UNL1        0.0165
     14 C         139.1518  140.1162  168.1921 C.3     1  UNL1        0.0125
     15 C         140.0708  140.2380  170.6191 C.2     1  UNL1        0.3164
     16 O         139.4928  139.1116  171.4235 O.2     1  UNL1       -0.2501
     17 O         140.4130  141.5374  171.2860 O.3     1  UNL1       -0.4485
     18 C         140.4475  143.6774  169.8132 C.3     1  UNL1        0.0513
     19 C         141.1798  142.5862  170.5363 C.3     1  UNL1        0.2086
     20 C         143.2182  138.9605  159.1703 C.3     1  UNL1        0.1747
     21 N         143.0363  137.6141  158.5345 N.pl3   1  UNL1       -0.3093
     22 H         143.1599  136.7966  159.0690 H       1  UNL1        0.1487
     23 C         142.6659  137.5132  157.0845 C.ar    1  UNL1        0.1500
     24 N         142.2361  138.6484  156.2033 N.ar    1  UNL1       -0.1544
     25 N         141.9649  138.0962  154.8352 N.ar    1  UNL1       -0.2476
     26 C         141.5111  138.8824  153.6411 C.3     1  UNL1        0.1537
     27 C         142.2271  136.6197  154.8709 C.ar    1  UNL1        0.0807
     28 C         142.1273  135.5568  153.8173 C.ar    1  UNL1        0.0188
     29 C         142.4609  134.1336  154.1537 C.ar    1  UNL1        0.0054
     30 C         142.8941  133.7733  155.5438 C.ar    1  UNL1        0.0716
     31 C         142.9939  134.8362  156.5975 C.ar    1  UNL1        0.0082
     32 C         142.6604  136.2594  156.2611 C.ar    1  UNL1        0.0503
     33 C         143.2276  132.3500  155.8803 C.3     1  UNL1        0.4186
     34 F         143.5611  130.9268  156.2167 F       1  UNL1       -0.1659
     35 F         143.6030  132.0998  154.4497 F       1  UNL1       -0.1659
     36 F         142.8522  132.6003  157.3108 F       1  UNL1       -0.1659
@<TRIPOS>BOND
     1    18    19    1
     2    19    17    1
     3    17    15    1
     4    15    16    2
     5     9    15    1
     6     9    10    1
     7    10    11    1
     8    11    12    1
     9    12     5    1
    10     5     6    1
    11     6     7    1
    12     7     1    1
    13     1     2   am
    14     2     3    2
    15     2    20    1
    16    20    21    1
    17    21    23    1
    18    23    24   ar
    19    24    25   ar
    20    25    26    1
    21    25    27   ar
    22    27    28   ar
    23    28    29   ar
    24    29    30   ar
    25    30    33    1
    26    33    34    1
    27    33    35    1
    28    33    36    1
    29    30    31   ar
    30    31    32   ar
    31     7     8    1
    32    12    13    1
    33    13    14    1
    34    14     9    1
    35     8     5    1
    36    32    23   ar
    37    32    27   ar
    38     1     4    1
    39    21    22    1
@<TRIPOS>MOLECULE
*****
 36 39 0 0 0
SMALL
GASTEIGER

@<TRIPOS>ATOM
      1 N         139.3988  138.1285  160.8074 N.am    1  UNL1       -0.3018
      2 C         140.0550  138.8093  159.6430 C.2     1  UNL1        0.2425
      3 O         141.1384  139.8197  159.8782 O.2     1  UNL1       -0.2733
      4 H         138.6877  137.4653  160.6531 H       1  UNL1        0.1495
      5 N         140.4301  138.9246  164.1863 N.3     1  UNL1       -0.2711
      6 C         140.1369  139.7232  162.9509 C.3     1  UNL1        0.0933
      7 C         139.8260  138.4582  162.2070 C.3     1  UNL1        0.1035
      8 C         140.1191  137.6597  163.4424 C.3     1  UNL1        0.0933
      9 C         141.7116  139.9138  168.3850 C.3     1  UNL1        0.0992
     10 C         140.2697  140.0400  167.9916 C.3     1  UNL1        0.0125
     11 C         139.8425  139.7103  166.5920 C.3     1  UNL1        0.0165
     12 C         140.8573  139.2544  165.5859 C.3     1  UNL1        0.0576
     13 C         142.2992  139.1281  165.9793 C.3     1  UNL1        0.0165
     14 C         142.7264  139.4578  167.3788 C.3     1  UNL1        0.0125
     15 C         142.1389  140.2435  169.7845 C.2     1  UNL1        0.3164
     16 O         143.2032  139.4270  170.4559 O.2     1  UNL1       -0.2501
     17 O         141.5019  141.3898  170.5128 O.3     1  UNL1       -0.4485
     18 C         140.5106  143.6439  169.6844 C.3     1  UNL1        0.0513
     19 C         141.6992  142.7932  170.0214 C.3     1  UNL1        0.2086
     20 C         139.6278  138.4796  158.2435 C.3     1  UNL1        0.1747
     21 N         140.1962  139.2456  157.0857 N.pl3   1  UNL1       -0.3093
     22 H         139.6492  139.9246  156.6286 H       1  UNL1        0.1487
     23 C         141.5980  138.9769  156.6244 C.ar    1  UNL1        0.1500
     24 N         142.6933  139.9934  156.4940 N.ar    1  UNL1       -0.1544
     25 N         143.9229  139.2893  156.0016 N.ar    1  UNL1       -0.2476
     26 C         145.2541  139.9252  155.7306 C.3     1  UNL1        0.1537
     27 C         143.5874  137.8377  155.8276 C.ar    1  UNL1        0.0807
     28 C         144.4047  136.6668  155.3684 C.ar    1  UNL1        0.0188
     29 C         143.7852  135.3027  155.2942 C.ar    1  UNL1        0.0054
     30 C         142.3483  135.1097  155.6792 C.ar    1  UNL1        0.0716
     31 C         141.5310  136.2806  156.1383 C.ar    1  UNL1        0.0082
     32 C         142.1506  137.6446  156.2126 C.ar    1  UNL1        0.0503
     33 C         141.7288  133.7456  155.6049 C.3     1  UNL1        0.4186
     34 F         141.1092  132.3815  155.5306 F       1  UNL1       -0.1659
     35 F         142.4637  133.3440  156.8493 F       1  UNL1       -0.1659
     36 F         140.9939  134.1471  154.3605 F       1  UNL1       -0.1659
@<TRIPOS>BOND
     1    18    19    1
     2    19    17    1
     3    17    15    1
     4    15    16    2
     5     9    15    1
     6     9    10    1
     7    10    11    1
     8    11    12    1
     9    12     5    1
    10     5     6    1
    11     6     7    1
    12     7     1    1
    13     1     2   am
    14     2     3    2
    15     2    20    1
    16    20    21    1
    17    21    23    1
    18    23    24   ar
    19    24    25   ar
    20    25    26    1
    21    25    27   ar
    22    27    28   ar
    23    28    29   ar
    24    29    30   ar
    25    30    33    1
    26    33    34    1
    27    33    35    1
    28    33    36    1
    29    30    31   ar
    30    31    32   ar
    31     7     8    1
    32    12    13    1
    33    13    14    1
    34    14     9    1
    35     8     5    1
    36    32    23   ar
    37    32    27   ar
    38     1     4    1
    39    21    22    1
@<TRIPOS>MOLECULE
*****
 36 39 0 0 0
SMALL
GASTEIGER

@<TRIPOS>ATOM
      1 N         137.4017  139.8391  160.2948 N.am    1  UNL1       -0.3018
      2 C         138.0639  140.7534  159.3072 C.2     1  UNL1        0.2425
      3 O         139.1001  141.7340  159.7706 O.2     1  UNL1       -0.2733
      4 H         136.7216  139.1955  159.9906 H       1  UNL1        0.1495
      5 N         138.3043  139.9996  163.7982 N.3     1  UNL1       -0.2711
      6 C         137.5584  140.8942  162.8531 C.3     1  UNL1        0.0933
      7 C         137.7756  139.9056  161.7460 C.3     1  UNL1        0.1035
      8 C         138.5214  139.0111  162.6911 C.3     1  UNL1        0.0933
      9 C         139.4260  140.1989  168.1516 C.3     1  UNL1        0.0992
     10 C         138.3942  139.2141  167.6873 C.3     1  UNL1        0.0125
     11 C         138.0203  139.1477  166.2362 C.3     1  UNL1        0.0165
     12 C         138.6782  140.0661  165.2493 C.3     1  UNL1        0.0576
     13 C         139.7100  141.0509  165.7137 C.3     1  UNL1        0.0165
     14 C         140.0839  141.1173  167.1647 C.3     1  UNL1        0.0125
     15 C         139.8000  140.2655  169.6027 C.2     1  UNL1        0.3164
     16 O         138.8509  139.7549  170.6460 O.2     1  UNL1       -0.2501
     17 O         141.1231  140.8426  170.0105 O.3     1  UNL1       -0.4485
     18 C         140.2080  143.2696  170.1586 C.3     1  UNL1        0.0513
     19 C         141.1919  142.2236  170.5919 C.3     1  UNL1        0.2086
     20 C         137.6900  140.6870  157.8560 C.3     1  UNL1        0.1747
     21 N         138.7556  140.7610  156.8028 N.pl3   1  UNL1       -0.3093
     22 H         139.0264  141.6339  156.4370 H       1  UNL1        0.1487
     23 C         139.4086  139.5048  156.3069 C.ar    1  UNL1        0.1500
     24 N         139.0319  138.7445  155.0700 N.ar    1  UNL1       -0.1544
     25 N         139.9434  137.5583  154.9596 N.ar    1  UNL1       -0.2476
     26 C         139.9192  136.5260  153.8716 C.3     1  UNL1        0.1537
     27 C         140.8833  137.5855  156.1283 C.ar    1  UNL1        0.0807
     28 C         141.9974  136.6703  156.5418 C.ar    1  UNL1        0.0188
     29 C         142.7810  136.9582  157.7880 C.ar    1  UNL1        0.0054
     30 C         142.4505  138.1612  158.6207 C.ar    1  UNL1        0.0716
     31 C         141.3363  139.0764  158.2072 C.ar    1  UNL1        0.0082
     32 C         140.5528  138.7886  156.9610 C.ar    1  UNL1        0.0503
     33 C         143.2341  138.4490  159.8670 C.3     1  UNL1        0.4186
     34 F         144.0177  138.7368  161.1132 F       1  UNL1       -0.1659
     35 F         143.9057  139.6003  159.1789 F       1  UNL1       -0.1659
     36 F         142.5625  137.2978  160.5551 F       1  UNL1       -0.1659
@<TRIPOS>BOND
     1    18    19    1
     2    19    17    1
     3    17    15    1
     4    15    16    2
     5     9    15    1
     6     9    10    1
     7    10    11    1
     8    11    12    1
     9    12     5    1
    10     5     6    1
    11     6     7    1
    12     7     1    1
    13     1     2   am
    14     2     3    2
    15     2    20    1
    16    20    21    1
    17    21    23    1
    18    23    24   ar
    19    24    25   ar
    20    25    26    1
    21    25    27   ar
    22    27    28   ar
    23    28    29   ar
    24    29    30   ar
    25    30    33    1
    26    33    34    1
    27    33    35    1
    28    33    36    1
    29    30    31   ar
    30    31    32   ar
    31     7     8    1
    32    12    13    1
    33    13    14    1
    34    14     9    1
    35     8     5    1
    36    32    23   ar
    37    32    27   ar
    38     1     4    1
    39    21    22    1
