@<TRIPOS>MOLECULE
*****
 28 31 0 0 0
SMALL
GASTEIGER

@<TRIPOS>ATOM
      1 C         142.7065  142.6140  165.2510 C.ar    1  UNL1        0.1547
      2 C         142.3105  143.2831  163.9682 C.ar    1  UNL1        0.0400
      3 C         140.9120  143.7955  163.7903 C.ar    1  UNL1        0.0241
      4 C         139.9095  143.6388  164.8951 C.ar    1  UNL1        0.0033
      5 C         140.3055  142.9696  166.1778 C.ar    1  UNL1        0.0207
      6 C         141.7040  142.4572  166.3558 C.ar    1  UNL1        0.0994
      7 N         142.1000  141.7881  167.6385 N.ar    1  UNL1       -0.2839
      8 C         142.6160  142.4745  168.8683 C.ar    1  UNL1        0.1826
      9 N         142.8844  141.4256  169.9065 N.ar    1  UNL1       -0.2280
     10 C         142.5342  140.0910  169.3183 C.ar    1  UNL1        0.0786
     11 C         142.6486  138.7650  170.0104 C.3     1  UNL1        0.0538
     12 C         142.0494  140.3149  167.9166 C.ar    1  UNL1        0.0963
     13 C         140.5159  144.4647  162.5075 C.ar    1  UNL1        0.1233
     14 C         140.8554  143.9917  161.1251 C.ar    1  UNL1        0.1180
     15 N         140.2602  144.9589  160.1452 N.ar    1  UNL1       -0.2233
     16 N         139.5529  146.0296  160.9219 N.ar    1  UNL1       -0.0634
     17 N         139.7109  145.7241  162.3820 N.ar    1  UNL1       -0.1287
     18 C         140.3555  144.8710  158.6508 C.3     1  UNL1        0.1825
     19 C         141.3535  145.7876  158.0073 C.3     1  UNL1        0.0339
     20 C         141.6827  145.9377  156.5515 C.3     1  UNL1        0.0043
     21 C         141.0953  145.2084  155.3799 C.3     1  UNL1        0.0213
     22 C         140.0335  144.1488  155.3744 C.3     1  UNL1        0.0894
     23 N         139.2970  143.5569  156.5393 N.am    1  UNL1       -0.3028
     24 C         139.4403  143.8784  157.9975 C.2     1  UNL1        0.2449
     25 O         138.5508  143.1047  158.9249 O.2     1  UNL1       -0.2730
     26 H         138.6315  142.8661  156.3176 H       1  UNL1        0.1495
     27 C         145.0151  141.9779  164.2431 C.3     1  UNL1        0.2525
     28 O         144.1050  142.1015  165.4291 O.3     1  UNL1       -0.4700
@<TRIPOS>BOND
     1    27    28    1
     2    28     1    1
     3     1     2   ar
     4     2     3   ar
     5     3    13    1
     6    13    14   ar
     7    14    15   ar
     8    15    18    1
     9    18    19    1
    10    19    20    1
    11    20    21    1
    12    21    22    1
    13    22    23    1
    14    23    24   am
    15    24    25    2
    16    15    16   ar
    17    16    17   ar
    18     3     4   ar
    19     4     5   ar
    20     5     6   ar
    21     6     7    1
    22     7     8   ar
    23     8     9   ar
    24     9    10   ar
    25    10    11    1
    26    10    12   ar
    27     6     1   ar
    28    12     7   ar
    29    17    13   ar
    30    24    18    1
    31    23    26    1
@<TRIPOS>MOLECULE
*****
 28 31 0 0 0
SMALL
GASTEIGER

@<TRIPOS>ATOM
      1 C         138.3533  140.4088  163.4507 C.ar    1  UNL1        0.1547
      2 C         138.4325  140.3598  161.9535 C.ar    1  UNL1        0.0400
      3 C         138.9804  139.1417  161.2709 C.ar    1  UNL1        0.0241
      4 C         139.4492  137.9726  162.0854 C.ar    1  UNL1        0.0033
      5 C         139.3700  138.0216  163.5825 C.ar    1  UNL1        0.0207
      6 C         138.8221  139.2397  164.2651 C.ar    1  UNL1        0.0994
      7 N         138.7430  139.2886  165.7622 N.ar    1  UNL1       -0.2839
      8 C         137.7348  138.5778  166.6156 C.ar    1  UNL1        0.1826
      9 N         138.0269  138.9069  168.0496 N.ar    1  UNL1       -0.2280
     10 C         139.2156  139.8210  168.0825 C.ar    1  UNL1        0.0786
     11 C         139.8504  140.3980  169.3131 C.3     1  UNL1        0.0538
     12 C         139.6583  140.0570  166.6689 C.ar    1  UNL1        0.0963
     13 C         139.0596  139.0927  159.7738 C.ar    1  UNL1        0.1233
     14 C         140.0144  138.2624  158.9682 C.ar    1  UNL1        0.1180
     15 N         139.7429  138.5218  157.5160 N.ar    1  UNL1       -0.2233
     16 N         138.6203  139.5124  157.4240 N.ar    1  UNL1       -0.0634
     17 N         138.1980  139.8653  158.8195 N.ar    1  UNL1       -0.1287
     18 C         140.4668  137.8999  156.3587 C.3     1  UNL1        0.1825
     19 C         141.9484  138.1305  156.3181 C.3     1  UNL1        0.0339
     20 C         142.9426  137.6477  155.3039 C.3     1  UNL1        0.0043
     21 C         142.7007  136.8152  154.0799 C.3     1  UNL1        0.0213
     22 C         141.4048  136.2598  153.5676 C.3     1  UNL1        0.0894
     23 N         140.0309  136.3997  154.1530 N.am    1  UNL1       -0.3028
     24 C         139.6135  137.1296  155.3952 C.2     1  UNL1        0.2449
     25 O         138.1490  137.0832  155.7162 O.2     1  UNL1       -0.2730
     26 H         139.3074  135.9535  153.6563 H       1  UNL1        0.1495
     27 C         137.6726  142.9150  163.3762 C.3     1  UNL1        0.2525
     28 O         137.8054  141.6269  164.1333 O.3     1  UNL1       -0.4700
@<TRIPOS>BOND
     1    27    28    1
     2    28     1    1
     3     1     2   ar
     4     2     3   ar
     5     3    13    1
     6    13    14   ar
     7    14    15   ar
     8    15    18    1
     9    18    19    1
    10    19    20    1
    11    20    21    1
    12    21    22    1
    13    22    23    1
    14    23    24   am
    15    24    25    2
    16    15    16   ar
    17    16    17   ar
    18     3     4   ar
    19     4     5   ar
    20     5     6   ar
    21     6     7    1
    22     7     8   ar
    23     8     9   ar
    24     9    10   ar
    25    10    11    1
    26    10    12   ar
    27     6     1   ar
    28    12     7   ar
    29    17    13   ar
    30    24    18    1
    31    23    26    1
@<TRIPOS>MOLECULE
*****
 28 31 0 0 0
SMALL
GASTEIGER

@<TRIPOS>ATOM
      1 C         141.7548  139.5788  163.8067 C.ar    1  UNL1        0.1547
      2 C         141.8175  139.2823  162.3376 C.ar    1  UNL1        0.0400
      3 C         143.1460  139.1886  161.6476 C.ar    1  UNL1        0.0241
      4 C         144.4118  139.3914  162.4266 C.ar    1  UNL1        0.0033
      5 C         144.3490  139.6878  163.8956 C.ar    1  UNL1        0.0207
      6 C         143.0204  139.7815  164.5857 C.ar    1  UNL1        0.0994
      7 N         142.9577  140.0780  166.0547 N.ar    1  UNL1       -0.2839
      8 C         142.9246  139.0629  167.1585 C.ar    1  UNL1        0.1826
      9 N         142.8635  139.7992  168.4639 N.ar    1  UNL1       -0.2280
     10 C         142.8588  141.2695  168.1669 C.ar    1  UNL1        0.0786
     11 C         142.8053  142.3736  169.1809 C.3     1  UNL1        0.0538
     12 C         142.9170  141.4419  166.6780 C.ar    1  UNL1        0.0963
     13 C         143.2089  138.8921  160.1785 C.ar    1  UNL1        0.1233
     14 C         142.6551  137.6741  159.5004 C.ar    1  UNL1        0.1180
     15 N         142.9405  137.7907  158.0324 N.ar    1  UNL1       -0.2233
     16 N         143.6706  139.0808  157.8032 N.ar    1  UNL1       -0.0634
     17 N         143.8365  139.7615  159.1296 N.ar    1  UNL1       -0.1287
     18 C         142.5623  136.7926  156.9786 C.3     1  UNL1        0.1825
     19 C         143.6673  135.8951  156.5057 C.3     1  UNL1        0.0339
     20 C         143.6120  134.8072  155.4744 C.3     1  UNL1        0.0043
     21 C         142.4381  134.3482  154.6614 C.3     1  UNL1        0.0213
     22 C         141.0295  134.8635  154.6787 C.3     1  UNL1        0.0894
     23 N         140.4470  135.9653  155.5134 N.am    1  UNL1       -0.3028
     24 C         141.1292  136.8237  156.5370 C.2     1  UNL1        0.2449
     25 O         140.2637  137.8490  157.2076 O.2     1  UNL1       -0.2730
     26 H         139.4904  136.1493  155.3707 H       1  UNL1        0.1495
     27 C         139.7452  138.4283  164.9851 C.3     1  UNL1        0.2525
     28 O         140.4262  139.6725  164.4968 O.3     1  UNL1       -0.4700
@<TRIPOS>BOND
     1    27    28    1
     2    28     1    1
     3     1     2   ar
     4     2     3   ar
     5     3    13    1
     6    13    14   ar
     7    14    15   ar
     8    15    18    1
     9    18    19    1
    10    19    20    1
    11    20    21    1
    12    21    22    1
    13    22    23    1
    14    23    24   am
    15    24    25    2
    16    15    16   ar
    17    16    17   ar
    18     3     4   ar
    19     4     5   ar
    20     5     6   ar
    21     6     7    1
    22     7     8   ar
    23     8     9   ar
    24     9    10   ar
    25    10    11    1
    26    10    12   ar
    27     6     1   ar
    28    12     7   ar
    29    17    13   ar
    30    24    18    1
    31    23    26    1
@<TRIPOS>MOLECULE
*****
 28 31 0 0 0
SMALL
GASTEIGER

@<TRIPOS>ATOM
      1 C         144.0799  139.5045  163.4025 C.ar    1  UNL1        0.1547
      2 C         144.1454  139.4359  161.9054 C.ar    1  UNL1        0.0400
      3 C         143.1209  138.6471  161.1453 C.ar    1  UNL1        0.0241
      4 C         142.0307  137.9268  161.8821 C.ar    1  UNL1        0.0033
      5 C         141.9652  137.9954  163.3790 C.ar    1  UNL1        0.0207
      6 C         142.9898  138.7843  164.1393 C.ar    1  UNL1        0.0994
      7 N         142.9242  138.8529  165.6362 N.ar    1  UNL1       -0.2839
      8 C         143.7338  138.0288  166.5930 C.ar    1  UNL1        0.1826
      9 N         143.3474  138.4243  167.9874 N.ar    1  UNL1       -0.2280
     10 C         142.2990  139.4928  167.8924 C.ar    1  UNL1        0.0786
     11 C         141.6296  140.1764  169.0477 C.3     1  UNL1        0.0538
     12 C         142.0374  139.7578  166.4394 C.ar    1  UNL1        0.0963
     13 C         143.1863  138.5784  159.6482 C.ar    1  UNL1        0.1233
     14 C         142.5999  137.4979  158.7888 C.ar    1  UNL1        0.1180
     15 N         142.9008  137.8298  157.3572 N.ar    1  UNL1       -0.2233
     16 N         143.6732  139.1154  157.3319 N.ar    1  UNL1       -0.0634
     17 N         143.8497  139.5781  158.7479 N.ar    1  UNL1       -0.1287
     18 C         142.4998  137.0186  156.1609 C.3     1  UNL1        0.1825
     19 C         143.1433  135.6686  156.0447 C.3     1  UNL1        0.0339
     20 C         142.9542  134.6312  154.9779 C.3     1  UNL1        0.0043
     21 C         142.0751  134.6876  153.7639 C.3     1  UNL1        0.0213
     22 C         141.1678  135.7953  153.3168 C.3     1  UNL1        0.0894
     23 N         140.9157  137.1202  153.9733 N.am    1  UNL1       -0.3028
     24 C         141.5085  137.6646  155.2391 C.2     1  UNL1        0.2449
     25 O         141.0492  139.0364  155.6354 O.2     1  UNL1       -0.2730
     26 H         140.2766  137.7105  153.5125 H       1  UNL1        0.1495
     27 C         145.6177  141.5887  163.6068 C.3     1  UNL1        0.2525
     28 O         145.1045  140.2934  164.1627 O.3     1  UNL1       -0.4700
@<TRIPOS>BOND
     1    27    28    1
     2    28     1    1
     3     1     2   ar
     4     2     3   ar
     5     3    13    1
     6    13    14   ar
     7    14    15   ar
     8    15    18    1
     9    18    19    1
    10    19    20    1
    11    20    21    1
    12    21    22    1
    13    22    23    1
    14    23    24   am
    15    24    25    2
    16    15    16   ar
    17    16    17   ar
    18     3     4   ar
    19     4     5   ar
    20     5     6   ar
    21     6     7    1
    22     7     8   ar
    23     8     9   ar
    24     9    10   ar
    25    10    11    1
    26    10    12   ar
    27     6     1   ar
    28    12     7   ar
    29    17    13   ar
    30    24    18    1
    31    23    26    1
@<TRIPOS>MOLECULE
*****
 28 31 0 0 0
SMALL
GASTEIGER

@<TRIPOS>ATOM
      1 C         142.0165  138.0753  163.3452 C.ar    1  UNL1        0.1547
      2 C         142.0790  138.0171  161.8475 C.ar    1  UNL1        0.0400
      3 C         143.1821  138.7217  161.1151 C.ar    1  UNL1        0.0241
      4 C         144.2227  139.4846  161.8801 C.ar    1  UNL1        0.0033
      5 C         144.1601  139.5428  163.3776 C.ar    1  UNL1        0.0207
      6 C         143.0570  138.8382  164.1102 C.ar    1  UNL1        0.0994
      7 N         142.9945  138.8964  165.6077 N.ar    1  UNL1       -0.2839
      8 C         143.8090  138.0687  166.5571 C.ar    1  UNL1        0.1826
      9 N         143.4243  138.4534  167.9550 N.ar    1  UNL1       -0.2280
     10 C         142.3720  139.5189  167.8695 C.ar    1  UNL1        0.0786
     11 C         141.7028  140.1924  169.0309 C.3     1  UNL1        0.0538
     12 C         142.1063  139.7927  166.4189 C.ar    1  UNL1        0.0963
     13 C         143.2447  138.6635  159.6175 C.ar    1  UNL1        0.1233
     14 C         142.6401  137.5991  158.7505 C.ar    1  UNL1        0.1180
     15 N         142.9446  137.9372  157.3212 N.ar    1  UNL1       -0.2233
     16 N         143.7374  139.2104  157.3047 N.ar    1  UNL1       -0.0634
     17 N         143.9228  139.6593  158.7240 N.ar    1  UNL1       -0.1287
     18 C         142.5293  137.1417  156.1192 C.3     1  UNL1        0.1825
     19 C         143.3530  135.9218  155.8298 C.3     1  UNL1        0.0339
     20 C         143.1961  134.9302  154.7153 C.3     1  UNL1        0.0043
     21 C         142.1768  134.9135  153.6150 C.3     1  UNL1        0.0213
     22 C         141.0627  135.8842  153.3574 C.3     1  UNL1        0.0894
     23 N         140.6926  137.1114  154.1365 N.am    1  UNL1       -0.3028
     24 C         141.3454  137.6710  155.3656 C.2     1  UNL1        0.2449
     25 O         140.7332  138.9260  155.9136 O.2     1  UNL1       -0.2730
     26 H         139.9191  137.6164  153.7961 H       1  UNL1        0.1495
     27 C         139.4821  137.6456  163.7227 C.3     1  UNL1        0.2525
     28 O         140.9133  137.3707  164.0777 O.3     1  UNL1       -0.4700
@<TRIPOS>BOND
     1    27    28    1
     2    28     1    1
     3     1     2   ar
     4     2     3   ar
     5     3    13    1
     6    13    14   ar
     7    14    15   ar
     8    15    18    1
     9    18    19    1
    10    19    20    1
    11    20    21    1
    12    21    22    1
    13    22    23    1
    14    23    24   am
    15    24    25    2
    16    15    16   ar
    17    16    17   ar
    18     3     4   ar
    19     4     5   ar
    20     5     6   ar
    21     6     7    1
    22     7     8   ar
    23     8     9   ar
    24     9    10   ar
    25    10    11    1
    26    10    12   ar
    27     6     1   ar
    28    12     7   ar
    29    17    13   ar
    30    24    18    1
    31    23    26    1
@<TRIPOS>MOLECULE
*****
 28 31 0 0 0
SMALL
GASTEIGER

@<TRIPOS>ATOM
      1 C         140.0829  140.8392  165.1649 C.ar    1  UNL1        0.1547
      2 C         139.8999  141.6340  163.9059 C.ar    1  UNL1        0.0400
      3 C         140.1518  143.1127  163.9093 C.ar    1  UNL1        0.0241
      4 C         140.5866  143.7966  165.1717 C.ar    1  UNL1        0.0033
      5 C         140.7695  143.0017  166.4305 C.ar    1  UNL1        0.0207
      6 C         140.5176  141.5230  166.4271 C.ar    1  UNL1        0.0994
      7 N         140.7005  140.7282  167.6860 N.ar    1  UNL1       -0.2839
      8 C         139.6497  140.4661  168.7238 C.ar    1  UNL1        0.1826
      9 N         140.2662  139.6318  169.8073 N.ar    1  UNL1       -0.2280
     10 C         141.6980  139.3784  169.4392 C.ar    1  UNL1        0.0786
     11 C         142.6877  138.5864  170.2413 C.3     1  UNL1        0.0538
     12 C         141.9666  140.0560  168.1282 C.ar    1  UNL1        0.0963
     13 C         139.9689  143.9076  162.6505 C.ar    1  UNL1        0.1233
     14 C         140.4798  143.5346  161.2903 C.ar    1  UNL1        0.1180
     15 N         140.0697  144.6115  160.3299 N.ar    1  UNL1       -0.2233
     16 N         139.3055  145.6499  161.0965 N.ar    1  UNL1       -0.0634
     17 N         139.2432  145.2148  162.5307 N.ar    1  UNL1       -0.1287
     18 C         140.3709  144.6442  158.8608 C.3     1  UNL1        0.1825
     19 C         141.5159  145.5224  158.4508 C.3     1  UNL1        0.0339
     20 C         142.0601  145.7677  157.0746 C.3     1  UNL1        0.0043
     21 C         141.5938  145.1956  155.7689 C.3     1  UNL1        0.0213
     22 C         140.4682  144.2367  155.5165 C.3     1  UNL1        0.0894
     23 N         139.5308  143.6133  156.5078 N.am    1  UNL1       -0.3028
     24 C         139.4876  143.7947  157.9962 C.2     1  UNL1        0.2449
     25 O         138.4197  143.0246  158.7149 O.2     1  UNL1       -0.2730
     26 H         138.8546  143.0045  156.1318 H       1  UNL1        0.1495
     27 C         138.4854  138.8279  165.5566 C.3     1  UNL1        0.2525
     28 O         139.8310  139.3604  165.1615 O.3     1  UNL1       -0.4700
@<TRIPOS>BOND
     1    27    28    1
     2    28     1    1
     3     1     2   ar
     4     2     3   ar
     5     3    13    1
     6    13    14   ar
     7    14    15   ar
     8    15    18    1
     9    18    19    1
    10    19    20    1
    11    20    21    1
    12    21    22    1
    13    22    23    1
    14    23    24   am
    15    24    25    2
    16    15    16   ar
    17    16    17   ar
    18     3     4   ar
    19     4     5   ar
    20     5     6   ar
    21     6     7    1
    22     7     8   ar
    23     8     9   ar
    24     9    10   ar
    25    10    11    1
    26    10    12   ar
    27     6     1   ar
    28    12     7   ar
    29    17    13   ar
    30    24    18    1
    31    23    26    1
@<TRIPOS>MOLECULE
*****
 28 31 0 0 0
SMALL
GASTEIGER

@<TRIPOS>ATOM
      1 C         141.3769  138.3923  160.9356 C.ar    1  UNL1        0.1547
      2 C         141.3507  138.6285  162.4167 C.ar    1  UNL1        0.0400
      3 C         142.6363  138.7658  163.1771 C.ar    1  UNL1        0.0241
      4 C         143.9482  138.6670  162.4564 C.ar    1  UNL1        0.0033
      5 C         143.9743  138.4308  160.9754 C.ar    1  UNL1        0.0207
      6 C         142.6887  138.2935  160.2150 C.ar    1  UNL1        0.0994
      7 N         142.7149  138.0573  158.7339 N.ar    1  UNL1       -0.2839
      8 C         142.6841  139.1158  157.6716 C.ar    1  UNL1        0.1826
      9 N         142.7267  138.4337  156.3363 N.ar    1  UNL1       -0.2280
     10 C         142.7839  136.9537  156.5734 C.ar    1  UNL1        0.0786
     11 C         142.8388  135.8926  155.5145 C.3     1  UNL1        0.0538
     12 C         142.7766  136.7210  158.0552 C.ar    1  UNL1        0.0963
     13 C         142.6102  139.0020  164.6582 C.ar    1  UNL1        0.1233
     14 C         141.7032  139.9513  165.3837 C.ar    1  UNL1        0.1180
     15 N         142.0189  139.8664  166.8476 N.ar    1  UNL1       -0.2233
     16 N         143.1208  138.8647  167.0269 N.ar    1  UNL1       -0.0634
     17 N         143.4863  138.3304  165.6737 N.ar    1  UNL1       -0.1287
     18 C         141.3500  140.6463  167.9405 C.3     1  UNL1        0.1825
     19 C         140.1243  140.0164  168.5330 C.3     1  UNL1        0.0339
     20 C         139.2411  140.5376  169.6278 C.3     1  UNL1        0.0043
     21 C         139.3655  141.8173  170.4003 C.3     1  UNL1        0.0213
     22 C         140.4038  142.8919  170.2690 C.3     1  UNL1        0.0894
     23 N         141.5741  142.9522  169.3327 N.am    1  UNL1       -0.3028
     24 C         141.9951  141.9528  168.2964 C.2     1  UNL1        0.2449
     25 O         143.2239  142.3067  167.5123 O.2     1  UNL1       -0.2730
     26 H         142.1408  143.7537  169.4082 H       1  UNL1        0.1495
     27 C         139.2628  139.4694  159.8771 C.3     1  UNL1        0.2525
     28 O         140.0912  138.2550  160.1752 O.3     1  UNL1       -0.4700
@<TRIPOS>BOND
     1    27    28    1
     2    28     1    1
     3     1     2   ar
     4     2     3   ar
     5     3    13    1
     6    13    14   ar
     7    14    15   ar
     8    15    18    1
     9    18    19    1
    10    19    20    1
    11    20    21    1
    12    21    22    1
    13    22    23    1
    14    23    24   am
    15    24    25    2
    16    15    16   ar
    17    16    17   ar
    18     3     4   ar
    19     4     5   ar
    20     5     6   ar
    21     6     7    1
    22     7     8   ar
    23     8     9   ar
    24     9    10   ar
    25    10    11    1
    26    10    12   ar
    27     6     1   ar
    28    12     7   ar
    29    17    13   ar
    30    24    18    1
    31    23    26    1
@<TRIPOS>MOLECULE
*****
 28 31 0 0 0
SMALL
GASTEIGER

@<TRIPOS>ATOM
      1 C         138.1939  144.1164  155.8287 C.ar    1  UNL1        0.1547
      2 C         137.8241  143.0129  156.7752 C.ar    1  UNL1        0.0400
      3 C         138.6739  142.7433  157.9815 C.ar    1  UNL1        0.0241
      4 C         139.8934  143.5772  158.2415 C.ar    1  UNL1        0.0033
      5 C         140.2631  144.6806  157.2951 C.ar    1  UNL1        0.0207
      6 C         139.4134  144.9502  156.0887 C.ar    1  UNL1        0.0994
      7 N         139.7832  146.0537  155.1423 N.ar    1  UNL1       -0.2839
      8 C         140.6606  145.9211  153.9330 C.ar    1  UNL1        0.1826
      9 N         140.7602  147.2690  153.2825 N.ar    1  UNL1       -0.2280
     10 C         139.9442  148.2346  154.0897 C.ar    1  UNL1        0.0786
     11 C         139.7637  149.6950  153.7985 C.3     1  UNL1        0.0538
     12 C         139.3403  147.4836  155.2391 C.ar    1  UNL1        0.0963
     13 C         138.3041  141.6399  158.9280 C.ar    1  UNL1        0.1233
     14 C         138.7138  141.5389  160.3674 C.ar    1  UNL1        0.1180
     15 N         138.1228  140.2803  160.9303 N.ar    1  UNL1       -0.2233
     16 N         137.3479  139.6035  159.8387 N.ar    1  UNL1       -0.0634
     17 N         137.4600  140.4438  158.6012 N.ar    1  UNL1       -0.1287
     18 C         138.2791  139.7854  162.3376 C.3     1  UNL1        0.1825
     19 C         138.9699  138.4625  162.4892 C.3     1  UNL1        0.0339
     20 C         139.2762  137.7062  163.7480 C.3     1  UNL1        0.0043
     21 C         138.9674  138.0860  165.1657 C.3     1  UNL1        0.0213
     22 C         138.2760  139.3159  165.6752 C.3     1  UNL1        0.0894
     23 N         137.7227  140.4697  164.8926 N.am    1  UNL1       -0.3028
     24 C         137.7241  140.6786  163.4071 C.2     1  UNL1        0.2449
     25 O         137.0861  141.9487  162.9280 O.2     1  UNL1       -0.2730
     26 H         137.3032  141.1843  165.4240 H       1  UNL1        0.1495
     27 C         137.5132  143.5549  153.3850 C.3     1  UNL1        0.2525
     28 O         137.3442  144.3860  154.6223 O.3     1  UNL1       -0.4700
@<TRIPOS>BOND
     1    27    28    1
     2    28     1    1
     3     1     2   ar
     4     2     3   ar
     5     3    13    1
     6    13    14   ar
     7    14    15   ar
     8    15    18    1
     9    18    19    1
    10    19    20    1
    11    20    21    1
    12    21    22    1
    13    22    23    1
    14    23    24   am
    15    24    25    2
    16    15    16   ar
    17    16    17   ar
    18     3     4   ar
    19     4     5   ar
    20     5     6   ar
    21     6     7    1
    22     7     8   ar
    23     8     9   ar
    24     9    10   ar
    25    10    11    1
    26    10    12   ar
    27     6     1   ar
    28    12     7   ar
    29    17    13   ar
    30    24    18    1
    31    23    26    1
@<TRIPOS>MOLECULE
*****
 28 31 0 0 0
SMALL
GASTEIGER

@<TRIPOS>ATOM
      1 C         138.3569  140.8185  163.6283 C.ar    1  UNL1        0.1547
      2 C         138.3503  140.8717  162.1292 C.ar    1  UNL1        0.0400
      3 C         138.6233  139.6297  161.3335 C.ar    1  UNL1        0.0241
      4 C         138.9028  138.3346  162.0369 C.ar    1  UNL1        0.0033
      5 C         138.9093  138.2815  163.5359 C.ar    1  UNL1        0.0207
      6 C         138.6363  139.5235  164.3316 C.ar    1  UNL1        0.0994
      7 N         138.6429  139.4703  165.8307 N.ar    1  UNL1       -0.2839
      8 C         137.6999  138.6804  166.6890 C.ar    1  UNL1        0.1826
      9 N         138.0679  138.9196  168.1234 N.ar    1  UNL1       -0.2280
     10 C         139.2382  139.8574  168.1515 C.ar    1  UNL1        0.0786
     11 C         139.9315  140.3656  169.3808 C.3     1  UNL1        0.0538
     12 C         139.5937  140.1977  166.7346 C.ar    1  UNL1        0.0963
     13 C         138.6168  139.6828  159.8345 C.ar    1  UNL1        0.1233
     14 C         138.0544  140.7907  158.9940 C.ar    1  UNL1        0.1180
     15 N         138.2615  140.4300  157.5528 N.ar    1  UNL1       -0.2233
     16 N         138.9519  139.0993  157.5026 N.ar    1  UNL1       -0.0634
     17 N         139.1715  138.6375  158.9128 N.ar    1  UNL1       -0.1287
     18 C         137.8504  141.2551  156.3695 C.3     1  UNL1        0.1825
     19 C         138.9453  142.0437  155.7141 C.3     1  UNL1        0.0339
     20 C         138.8590  142.9545  154.5253 C.3     1  UNL1        0.0043
     21 C         137.6567  143.3016  153.6985 C.3     1  UNL1        0.0213
     22 C         136.2436  142.8238  153.8560 C.3     1  UNL1        0.0894
     23 N         135.6839  141.8807  154.8794 N.am    1  UNL1       -0.3028
     24 C         136.3991  141.1826  155.9980 C.2     1  UNL1        0.2449
     25 O         135.5505  140.2945  156.8590 O.2     1  UNL1       -0.2730
     26 H         134.7197  141.6954  154.8074 H       1  UNL1        0.1495
     27 C         137.7378  143.3400  163.7219 C.3     1  UNL1        0.2525
     28 O         138.0839  142.0604  164.4240 O.3     1  UNL1       -0.4700
@<TRIPOS>BOND
     1    27    28    1
     2    28     1    1
     3     1     2   ar
     4     2     3   ar
     5     3    13    1
     6    13    14   ar
     7    14    15   ar
     8    15    18    1
     9    18    19    1
    10    19    20    1
    11    20    21    1
    12    21    22    1
    13    22    23    1
    14    23    24   am
    15    24    25    2
    16    15    16   ar
    17    16    17   ar
    18     3     4   ar
    19     4     5   ar
    20     5     6   ar
    21     6     7    1
    22     7     8   ar
    23     8     9   ar
    24     9    10   ar
    25    10    11    1
    26    10    12   ar
    27     6     1   ar
    28    12     7   ar
    29    17    13   ar
    30    24    18    1
    31    23    26    1
