@<TRIPOS>MOLECULE
*****
 34 38 0 0 0
SMALL
GASTEIGER

@<TRIPOS>ATOM
      1 N         138.3227  138.6951  161.1464 N.pl3   1  UNL1       -0.2802
      2 H         137.4843  138.4198  160.7100 H       1  UNL1        0.1552
      3 C         139.5450  138.9647  160.3198 C.ar    1  UNL1        0.2208
      4 N         139.6710  138.3664  158.9501 N.ar    1  UNL1       -0.2111
      5 C         140.8933  138.6359  158.1234 C.ar    1  UNL1        0.1147
      6 C         141.9896  139.5037  158.6665 C.ar    1  UNL1        0.0960
      7 CL        143.2119  139.7733  157.8399 Cl      1  UNL1       -0.0790
      8 C         141.8636  140.1021  160.0364 C.ar    1  UNL1        0.1138
      9 N         140.6413  139.8325  160.8629 N.ar    1  UNL1       -0.2111
     10 C         142.9599  140.9699  160.5795 C.ar    1  UNL1        0.1031
     11 C         143.4580  142.2465  159.9693 C.ar    1  UNL1        0.1196
     12 N         144.5565  142.7790  160.8409 N.ar    1  UNL1       -0.2248
     13 C         144.7374  141.8316  161.9896 C.ar    1  UNL1        0.1479
     14 C         145.6732  141.8425  163.1619 C.ar    1  UNL1        0.0374
     15 C         145.6222  140.7354  164.1725 C.ar    1  UNL1        0.0046
     16 C         144.6354  139.6172  164.0110 C.ar    1  UNL1        0.0191
     17 C         143.6997  139.6063  162.8387 C.ar    1  UNL1        0.0815
     18 N         143.7507  140.7135  161.8281 N.ar    1  UNL1       -0.2874
     19 C         137.9226  140.1217  163.2806 C.ar    1  UNL1        0.1551
     20 C         137.9777  140.2717  164.7721 C.ar    1  UNL1        0.0750
     21 C         138.4881  139.1450  165.6208 C.ar    1  UNL1        0.1415
     22 C         138.9432  137.8685  164.9781 C.ar    1  UNL1        0.0384
     23 C         138.8881  137.7185  163.4866 C.ar    1  UNL1        0.0209
     24 C         138.3778  138.8452  162.6378 C.ar    1  UNL1        0.0851
     25 C         137.6632  142.6693  162.8417 C.3     1  UNL1        0.2525
     26 O         137.4123  141.2484  162.4319 O.3     1  UNL1       -0.4701
     27 O         138.5431  139.2951  167.1122 O.3     1  UNL1       -0.4790
     28 C         139.7169  139.9728  167.7549 C.3     1  UNL1        0.1687
     29 C         141.0056  140.1160  167.0008 C.3     1  UNL1        0.0606
     30 C         142.1793  140.7938  167.6436 C.3     1  UNL1        0.0723
     31 N         142.0643  141.3283  169.0404 N.3     1  UNL1       -0.2973
     32 C         140.7756  141.1851  169.7945 C.3     1  UNL1        0.0723
     33 C         139.6018  140.5074  169.1518 C.3     1  UNL1        0.0606
     34 H         142.2673  142.3267  168.9913 H       1  UNL1        0.1233
@<TRIPOS>BOND
     1    25    26    1
     2    26    19    1
     3    19    20   ar
     4    20    21   ar
     5    21    27    1
     6    27    28    1
     7    28    29    1
     8    29    30    1
     9    30    31    1
    10    31    32    1
    11    32    33    1
    12    21    22   ar
    13    22    23   ar
    14    23    24   ar
    15    24     1    1
    16     1     3    1
    17     3     4   ar
    18     4     5   ar
    19     5     6   ar
    20     6     7    1
    21     6     8   ar
    22     8    10    1
    23    10    11   ar
    24    11    12   ar
    25    12    13   ar
    26    13    14   ar
    27    14    15   ar
    28    15    16   ar
    29    16    17   ar
    30    17    18   ar
    31     8     9   ar
    32    24    19   ar
    33     9     3   ar
    34    33    28    1
    35    18    10   ar
    36    18    13   ar
    37    31    34    1
    38     1     2    1
@<TRIPOS>MOLECULE
*****
 34 38 0 0 0
SMALL
GASTEIGER

@<TRIPOS>ATOM
      1 N         138.4325  138.5495  161.6327 N.pl3   1  UNL1       -0.2802
      2 H         137.6604  138.1299  161.1888 H       1  UNL1        0.1552
      3 C         139.5873  139.0485  160.8157 C.ar    1  UNL1        0.2208
      4 N         139.6299  138.7871  159.3393 N.ar    1  UNL1       -0.2111
      5 C         140.7847  139.2861  158.5223 C.ar    1  UNL1        0.1147
      6 C         141.8968  140.0465  159.1818 C.ar    1  UNL1        0.0960
      7 CL        143.0516  140.5455  158.3648 Cl      1  UNL1       -0.0790
      8 C         141.8542  140.3079  160.6583 C.ar    1  UNL1        0.1138
      9 N         140.6994  139.8089  161.4752 N.ar    1  UNL1       -0.2111
     10 C         142.9663  141.0683  161.3178 C.ar    1  UNL1        0.1031
     11 C         144.3835  140.6015  161.4715 C.ar    1  UNL1        0.1196
     12 N         145.1496  141.6737  162.1880 N.ar    1  UNL1       -0.2248
     13 C         144.2059  142.8033  162.4771 C.ar    1  UNL1        0.1479
     14 C         144.4009  144.1242  163.1606 C.ar    1  UNL1        0.0374
     15 C         143.2466  145.0709  163.3062 C.ar    1  UNL1        0.0046
     16 C         141.8972  144.6967  162.7683 C.ar    1  UNL1        0.0191
     17 C         141.7022  143.3758  162.0848 C.ar    1  UNL1        0.0815
     18 N         142.8565  142.4291  161.9392 N.ar    1  UNL1       -0.2874
     19 C         137.9779  139.9596  163.7669 C.ar    1  UNL1        0.1551
     20 C         137.9995  140.0998  165.2603 C.ar    1  UNL1        0.0750
     21 C         138.4971  138.9701  166.1125 C.ar    1  UNL1        0.1415
     22 C         138.9732  137.7003  165.4715 C.ar    1  UNL1        0.0384
     23 C         138.9516  137.5602  163.9782 C.ar    1  UNL1        0.0209
     24 C         138.4540  138.6898  163.1259 C.ar    1  UNL1        0.0851
     25 C         137.9629  142.4871  163.1656 C.3     1  UNL1        0.2525
     26 O         137.4803  141.0892  162.9147 O.3     1  UNL1       -0.4701
     27 O         138.5186  139.1104  167.6058 O.3     1  UNL1       -0.4790
     28 C         139.5463  139.9839  168.2622 C.3     1  UNL1        0.1687
     29 C         139.2489  140.6289  169.5834 C.3     1  UNL1        0.0606
     30 C         140.2766  141.5024  170.2398 C.3     1  UNL1        0.0723
     31 N         141.6017  141.7310  169.5750 N.3     1  UNL1       -0.2973
     32 C         141.8991  141.0860  168.2538 C.3     1  UNL1        0.0723
     33 C         140.8714  140.2125  167.5974 C.3     1  UNL1        0.0606
     34 H         142.3174  141.4101  170.2270 H       1  UNL1        0.1233
@<TRIPOS>BOND
     1    25    26    1
     2    26    19    1
     3    19    20   ar
     4    20    21   ar
     5    21    27    1
     6    27    28    1
     7    28    29    1
     8    29    30    1
     9    30    31    1
    10    31    32    1
    11    32    33    1
    12    21    22   ar
    13    22    23   ar
    14    23    24   ar
    15    24     1    1
    16     1     3    1
    17     3     4   ar
    18     4     5   ar
    19     5     6   ar
    20     6     7    1
    21     6     8   ar
    22     8    10    1
    23    10    11   ar
    24    11    12   ar
    25    12    13   ar
    26    13    14   ar
    27    14    15   ar
    28    15    16   ar
    29    16    17   ar
    30    17    18   ar
    31     8     9   ar
    32    24    19   ar
    33     9     3   ar
    34    33    28    1
    35    18    10   ar
    36    18    13   ar
    37    31    34    1
    38     1     2    1
@<TRIPOS>MOLECULE
*****
 34 38 0 0 0
SMALL
GASTEIGER

@<TRIPOS>ATOM
      1 N         142.7853  138.1536  161.2021 N.pl3   1  UNL1       -0.2802
      2 H         143.3590  137.5328  160.6975 H       1  UNL1        0.1552
      3 C         141.7411  138.9590  160.4873 C.ar    1  UNL1        0.2208
      4 N         141.1332  138.4407  159.2178 N.ar    1  UNL1       -0.2111
      5 C         140.0890  139.2460  158.5029 C.ar    1  UNL1        0.1147
      6 C         139.6527  140.5696  159.0576 C.ar    1  UNL1        0.0960
      7 CL        138.6085  141.3750  158.3427 Cl      1  UNL1       -0.0790
      8 C         140.2607  141.0880  160.3272 C.ar    1  UNL1        0.1138
      9 N         141.3049  140.2826  161.0420 N.ar    1  UNL1       -0.2111
     10 C         139.8245  142.4116  160.8819 C.ar    1  UNL1        0.1031
     11 C         140.0352  143.7500  160.2382 C.ar    1  UNL1        0.1196
     12 N         139.4419  144.7947  161.1361 N.ar    1  UNL1       -0.2248
     13 C         138.8644  144.1021  162.3348 C.ar    1  UNL1        0.1479
     14 C         138.1538  144.6223  163.5490 C.ar    1  UNL1        0.0374
     15 C         137.6797  143.6696  164.6061 C.ar    1  UNL1        0.0046
     16 C         137.9161  142.1967  164.4490 C.ar    1  UNL1        0.0191
     17 C         138.6267  141.6765  163.2347 C.ar    1  UNL1        0.0815
     18 N         139.1008  142.6292  162.1776 N.ar    1  UNL1       -0.2874
     19 C         141.9310  137.7160  163.6164 C.ar    1  UNL1        0.1551
     20 C         142.1012  137.8566  165.1001 C.ar    1  UNL1        0.0750
     21 C         143.2960  138.5754  165.6532 C.ar    1  UNL1        0.1415
     22 C         144.3205  139.1536  164.7226 C.ar    1  UNL1        0.0384
     23 C         144.1503  139.0130  163.2389 C.ar    1  UNL1        0.0209
     24 C         142.9555  138.2942  162.6858 C.ar    1  UNL1        0.0851
     25 C         139.3920  137.6630  163.0676 C.3     1  UNL1        0.2525
     26 O         140.7362  136.9972  163.0633 O.3     1  UNL1       -0.4701
     27 O         143.4661  138.7160  167.1368 O.3     1  UNL1       -0.4790
     28 C         142.7027  139.7700  167.8827 C.3     1  UNL1        0.1687
     29 C         142.5728  141.1496  167.3084 C.3     1  UNL1        0.0606
     30 C         141.8093  142.2035  168.0544 C.3     1  UNL1        0.0723
     31 N         141.1759  141.8779  169.3745 N.3     1  UNL1       -0.2973
     32 C         141.3059  140.4983  169.9488 C.3     1  UNL1        0.0723
     33 C         142.0693  139.4443  169.2029 C.3     1  UNL1        0.0606
     34 H         140.1777  142.0629  169.2758 H       1  UNL1        0.1233
@<TRIPOS>BOND
     1    25    26    1
     2    26    19    1
     3    19    20   ar
     4    20    21   ar
     5    21    27    1
     6    27    28    1
     7    28    29    1
     8    29    30    1
     9    30    31    1
    10    31    32    1
    11    32    33    1
    12    21    22   ar
    13    22    23   ar
    14    23    24   ar
    15    24     1    1
    16     1     3    1
    17     3     4   ar
    18     4     5   ar
    19     5     6   ar
    20     6     7    1
    21     6     8   ar
    22     8    10    1
    23    10    11   ar
    24    11    12   ar
    25    12    13   ar
    26    13    14   ar
    27    14    15   ar
    28    15    16   ar
    29    16    17   ar
    30    17    18   ar
    31     8     9   ar
    32    24    19   ar
    33     9     3   ar
    34    33    28    1
    35    18    10   ar
    36    18    13   ar
    37    31    34    1
    38     1     2    1
@<TRIPOS>MOLECULE
*****
 34 38 0 0 0
SMALL
GASTEIGER

@<TRIPOS>ATOM
      1 N         140.5444  137.4653  163.6950 N.pl3   1  UNL1       -0.2802
      2 H         140.5790  136.4814  163.6923 H       1  UNL1        0.1552
      3 C         140.8607  138.2302  162.4441 C.ar    1  UNL1        0.2208
      4 N         141.6009  137.5623  161.3234 N.ar    1  UNL1       -0.2111
      5 C         141.9171  138.3272  160.0725 C.ar    1  UNL1        0.1147
      6 C         141.4932  139.7602  159.9422 C.ar    1  UNL1        0.0960
      7 CL        141.8095  140.5251  158.6913 Cl      1  UNL1       -0.0790
      8 C         140.7529  140.4282  161.0630 C.ar    1  UNL1        0.1138
      9 N         140.4367  139.6632  162.3138 N.ar    1  UNL1       -0.2111
     10 C         140.3290  141.8611  160.9327 C.ar    1  UNL1        0.1031
     11 C         139.3712  142.4083  159.9162 C.ar    1  UNL1        0.1196
     12 N         139.2387  143.8838  160.1514 N.ar    1  UNL1       -0.2248
     13 C         140.1146  144.2485  161.3132 C.ar    1  UNL1        0.1479
     14 C         140.3856  145.5574  161.9938 C.ar    1  UNL1        0.0374
     15 C         141.3305  145.6162  163.1573 C.ar    1  UNL1        0.0046
     16 C         142.0043  144.3661  163.6402 C.ar    1  UNL1        0.0191
     17 C         141.7333  143.0572  162.9596 C.ar    1  UNL1        0.0815
     18 N         140.7884  142.9984  161.7961 N.ar    1  UNL1       -0.2874
     19 C         141.2373  138.8839  165.7583 C.ar    1  UNL1        0.1551
     20 C         140.8682  139.6179  167.0134 C.ar    1  UNL1        0.0750
     21 C         139.4370  139.6674  167.4599 C.ar    1  UNL1        0.1415
     22 C         138.3751  138.9828  166.6516 C.ar    1  UNL1        0.0384
     23 C         138.7442  138.2488  165.3966 C.ar    1  UNL1        0.0209
     24 C         140.1753  138.1993  164.9499 C.ar    1  UNL1        0.0851
     25 C         143.7182  138.2655  166.2197 C.3     1  UNL1        0.2525
     26 O         142.6685  138.8344  165.3118 O.3     1  UNL1       -0.4701
     27 O         139.0680  140.4014  168.7149 O.3     1  UNL1       -0.4790
     28 C         140.1259  141.1097  169.5081 C.3     1  UNL1        0.1687
     29 C         140.8781  140.3759  170.5784 C.3     1  UNL1        0.0606
     30 C         141.9361  141.0843  171.3716 C.3     1  UNL1        0.0723
     31 N         142.2418  142.5264  171.0944 N.3     1  UNL1       -0.2973
     32 C         141.4896  143.2602  170.0240 C.3     1  UNL1        0.0723
     33 C         140.4317  142.5519  169.2308 C.3     1  UNL1        0.0606
     34 H         143.2299  142.5754  170.8462 H       1  UNL1        0.1233
@<TRIPOS>BOND
     1    25    26    1
     2    26    19    1
     3    19    20   ar
     4    20    21   ar
     5    21    27    1
     6    27    28    1
     7    28    29    1
     8    29    30    1
     9    30    31    1
    10    31    32    1
    11    32    33    1
    12    21    22   ar
    13    22    23   ar
    14    23    24   ar
    15    24     1    1
    16     1     3    1
    17     3     4   ar
    18     4     5   ar
    19     5     6   ar
    20     6     7    1
    21     6     8   ar
    22     8    10    1
    23    10    11   ar
    24    11    12   ar
    25    12    13   ar
    26    13    14   ar
    27    14    15   ar
    28    15    16   ar
    29    16    17   ar
    30    17    18   ar
    31     8     9   ar
    32    24    19   ar
    33     9     3   ar
    34    33    28    1
    35    18    10   ar
    36    18    13   ar
    37    31    34    1
    38     1     2    1
@<TRIPOS>MOLECULE
*****
 34 38 0 0 0
SMALL
GASTEIGER

@<TRIPOS>ATOM
      1 N         140.2873  145.6463  161.8927 N.pl3   1  UNL1       -0.2802
      2 H         140.1851  146.6212  161.9846 H       1  UNL1        0.1552
      3 C         140.4502  145.0343  160.5330 C.ar    1  UNL1        0.2208
      4 N         141.5741  145.4742  159.6423 N.ar    1  UNL1       -0.2111
      5 C         141.7370  144.8621  158.2825 C.ar    1  UNL1        0.1147
      6 C         140.7760  143.8101  157.8135 C.ar    1  UNL1        0.0960
      7 CL        140.9390  143.1981  156.4538 Cl      1  UNL1       -0.0790
      8 C         139.6521  143.3702  158.7043 C.ar    1  UNL1        0.1138
      9 N         139.4892  143.9823  160.0639 N.ar    1  UNL1       -0.2111
     10 C         138.6911  142.3183  158.2353 C.ar    1  UNL1        0.1031
     11 C         138.5053  140.9597  158.8434 C.ar    1  UNL1        0.1196
     12 N         137.4466  140.2421  158.0598 N.ar    1  UNL1       -0.2248
     13 C         136.9782  141.1570  156.9673 C.ar    1  UNL1        0.1479
     14 C         135.9507  140.9875  155.8878 C.ar    1  UNL1        0.0374
     15 C         135.6924  142.1011  154.9167 C.ar    1  UNL1        0.0046
     16 C         136.4616  143.3843  155.0252 C.ar    1  UNL1        0.0191
     17 C         137.4891  143.5539  156.1047 C.ar    1  UNL1        0.0815
     18 N         137.7474  142.4402  157.0758 N.ar    1  UNL1       -0.2874
     19 C         141.4799  143.9358  163.4424 C.ar    1  UNL1        0.1551
     20 C         141.4725  143.0626  164.6621 C.ar    1  UNL1        0.0750
     21 C         140.2652  143.0268  165.5516 C.ar    1  UNL1        0.1415
     22 C         139.0653  143.8641  165.2215 C.ar    1  UNL1        0.0384
     23 C         139.0727  144.7373  164.0018 C.ar    1  UNL1        0.0209
     24 C         140.2800  144.7731  163.1123 C.ar    1  UNL1        0.0851
     25 C         143.9601  144.5973  163.0411 C.3     1  UNL1        0.2525
     26 O         142.6872  143.9716  162.5530 O.3     1  UNL1       -0.4701
     27 O         140.2579  142.1536  166.7712 O.3     1  UNL1       -0.4790
     28 C         141.0315  142.5613  167.9900 C.3     1  UNL1        0.1687
     29 C         142.4510  142.1088  168.1635 C.3     1  UNL1        0.0606
     30 C         143.2245  142.5165  169.3823 C.3     1  UNL1        0.0723
     31 N         142.5785  143.3766  170.4277 N.3     1  UNL1       -0.2973
     32 C         141.1589  143.8291  170.2542 C.3     1  UNL1        0.0723
     33 C         140.3854  143.4215  169.0354 C.3     1  UNL1        0.0606
     34 H         143.1481  144.2188  170.5092 H       1  UNL1        0.1233
@<TRIPOS>BOND
     1    25    26    1
     2    26    19    1
     3    19    20   ar
     4    20    21   ar
     5    21    27    1
     6    27    28    1
     7    28    29    1
     8    29    30    1
     9    30    31    1
    10    31    32    1
    11    32    33    1
    12    21    22   ar
    13    22    23   ar
    14    23    24   ar
    15    24     1    1
    16     1     3    1
    17     3     4   ar
    18     4     5   ar
    19     5     6   ar
    20     6     7    1
    21     6     8   ar
    22     8    10    1
    23    10    11   ar
    24    11    12   ar
    25    12    13   ar
    26    13    14   ar
    27    14    15   ar
    28    15    16   ar
    29    16    17   ar
    30    17    18   ar
    31     8     9   ar
    32    24    19   ar
    33     9     3   ar
    34    33    28    1
    35    18    10   ar
    36    18    13   ar
    37    31    34    1
    38     1     2    1
@<TRIPOS>MOLECULE
*****
 34 38 0 0 0
SMALL
GASTEIGER

@<TRIPOS>ATOM
      1 N         143.5028  137.6518  161.7332 N.pl3   1  UNL1       -0.2802
      2 H         143.8455  136.7491  161.9252 H       1  UNL1        0.1552
      3 C         143.3834  138.1225  160.3140 C.ar    1  UNL1        0.2208
      4 N         143.9235  139.4656  159.9213 N.ar    1  UNL1       -0.2111
      5 C         143.8041  139.9363  158.5021 C.ar    1  UNL1        0.1147
      6 C         143.1447  139.0638  157.4755 C.ar    1  UNL1        0.0960
      7 CL        143.0253  139.5345  156.0563 Cl      1  UNL1       -0.0790
      8 C         142.6045  137.7206  157.8682 C.ar    1  UNL1        0.1138
      9 N         142.7239  137.2500  159.2874 N.ar    1  UNL1       -0.2111
     10 C         141.9451  136.8481  156.8416 C.ar    1  UNL1        0.1031
     11 C         140.6661  137.1500  156.1183 C.ar    1  UNL1        0.1196
     12 N         140.3795  136.0089  155.1878 N.ar    1  UNL1       -0.2248
     13 C         141.4812  135.0019  155.3360 C.ar    1  UNL1        0.1479
     14 C         141.7284  133.6796  154.6722 C.ar    1  UNL1        0.0374
     15 C         142.9431  132.8760  155.0306 C.ar    1  UNL1        0.0046
     16 C         143.9107  133.3946  156.0528 C.ar    1  UNL1        0.0191
     17 C         143.6636  134.7169  156.7165 C.ar    1  UNL1        0.0815
     18 N         142.4488  135.5205  156.3581 N.ar    1  UNL1       -0.2874
     19 C         141.6602  138.6477  163.2705 C.ar    1  UNL1        0.1551
     20 C         141.2575  139.5524  164.3972 C.ar    1  UNL1        0.0750
     21 C         142.2946  140.3659  165.1132 C.ar    1  UNL1        0.1415
     22 C         143.7344  140.2747  164.7025 C.ar    1  UNL1        0.0384
     23 C         144.1371  139.3700  163.5759 C.ar    1  UNL1        0.0209
     24 C         143.1000  138.5565  162.8598 C.ar    1  UNL1        0.0851
     25 C         139.2367  137.7242  163.1164 C.3     1  UNL1        0.2525
     26 O         140.6231  137.8342  162.5545 O.3     1  UNL1       -0.4701
     27 O         141.8919  141.2705  166.2398 O.3     1  UNL1       -0.4790
     28 C         142.3790  140.9971  167.6319 C.3     1  UNL1        0.1687
     29 C         142.1943  139.6374  168.2376 C.3     1  UNL1        0.0606
     30 C         142.6814  139.3640  169.6298 C.3     1  UNL1        0.0723
     31 N         143.3533  140.4504  170.4162 N.3     1  UNL1       -0.2973
     32 C         143.5380  141.8102  169.8105 C.3     1  UNL1        0.0723
     33 C         143.0509  142.0836  168.4184 C.3     1  UNL1        0.0606
     34 H         144.2828  140.1070  170.6580 H       1  UNL1        0.1233
@<TRIPOS>BOND
     1    25    26    1
     2    26    19    1
     3    19    20   ar
     4    20    21   ar
     5    21    27    1
     6    27    28    1
     7    28    29    1
     8    29    30    1
     9    30    31    1
    10    31    32    1
    11    32    33    1
    12    21    22   ar
    13    22    23   ar
    14    23    24   ar
    15    24     1    1
    16     1     3    1
    17     3     4   ar
    18     4     5   ar
    19     5     6   ar
    20     6     7    1
    21     6     8   ar
    22     8    10    1
    23    10    11   ar
    24    11    12   ar
    25    12    13   ar
    26    13    14   ar
    27    14    15   ar
    28    15    16   ar
    29    16    17   ar
    30    17    18   ar
    31     8     9   ar
    32    24    19   ar
    33     9     3   ar
    34    33    28    1
    35    18    10   ar
    36    18    13   ar
    37    31    34    1
    38     1     2    1
@<TRIPOS>MOLECULE
*****
 34 38 0 0 0
SMALL
GASTEIGER

@<TRIPOS>ATOM
      1 N         142.0128  137.3180  163.4072 N.pl3   1  UNL1       -0.2802
      2 H         142.2146  136.3650  163.5498 H       1  UNL1        0.1552
      3 C         142.3733  137.9746  162.1077 C.ar    1  UNL1        0.2208
      4 N         143.5984  138.8352  162.0167 N.ar    1  UNL1       -0.2111
      5 C         143.9589  139.4918  160.7171 C.ar    1  UNL1        0.1147
      6 C         143.0942  139.2879  159.5085 C.ar    1  UNL1        0.0960
      7 CL        143.4546  139.9445  158.2089 Cl      1  UNL1       -0.0790
      8 C         141.8689  138.4272  159.5995 C.ar    1  UNL1        0.1138
      9 N         141.5085  137.7706  160.8991 N.ar    1  UNL1       -0.2111
     10 C         141.0042  138.2232  158.3910 C.ar    1  UNL1        0.1031
     11 C         139.7013  138.9124  158.1126 C.ar    1  UNL1        0.1196
     12 N         139.1824  138.4094  156.7982 N.ar    1  UNL1       -0.2248
     13 C         140.1647  137.4093  156.2642 C.ar    1  UNL1        0.1479
     14 C         140.1793  136.5886  155.0087 C.ar    1  UNL1        0.0374
     15 C         141.3198  135.6529  154.7377 C.ar    1  UNL1        0.0046
     16 C         142.4457  135.5378  155.7221 C.ar    1  UNL1        0.0191
     17 C         142.4311  136.3585  156.9776 C.ar    1  UNL1        0.0815
     18 N         141.2906  137.2943  157.2486 N.ar    1  UNL1       -0.2874
     19 C         139.8497  138.2278  164.5223 C.ar    1  UNL1        0.1551
     20 C         139.1819  139.0231  165.6047 C.ar    1  UNL1        0.0750
     21 C         140.0093  139.7040  166.6543 C.ar    1  UNL1        0.1415
     22 C         141.5046  139.5895  166.6216 C.ar    1  UNL1        0.0384
     23 C         142.1724  138.7941  165.5393 C.ar    1  UNL1        0.0209
     24 C         141.3450  138.1133  164.4896 C.ar    1  UNL1        0.0851
     25 C         138.3442  138.3586  162.4089 C.3     1  UNL1        0.2525
     26 O         139.0222  137.5469  163.4726 O.3     1  UNL1       -0.4701
     27 O         139.3415  140.4992  167.7366 O.3     1  UNL1       -0.4790
     28 C         140.1623  141.1103  168.8335 C.3     1  UNL1        0.1687
     29 C         140.5019  140.3059  170.0531 C.3     1  UNL1        0.0606
     30 C         141.3227  140.9170  171.1499 C.3     1  UNL1        0.0723
     31 N         141.8038  142.3324  171.0270 N.3     1  UNL1       -0.2973
     32 C         141.4642  143.1368  169.8074 C.3     1  UNL1        0.0723
     33 C         140.6435  142.5257  168.7105 C.3     1  UNL1        0.0606
     34 H         142.8217  142.3036  171.0868 H       1  UNL1        0.1233
@<TRIPOS>BOND
     1    25    26    1
     2    26    19    1
     3    19    20   ar
     4    20    21   ar
     5    21    27    1
     6    27    28    1
     7    28    29    1
     8    29    30    1
     9    30    31    1
    10    31    32    1
    11    32    33    1
    12    21    22   ar
    13    22    23   ar
    14    23    24   ar
    15    24     1    1
    16     1     3    1
    17     3     4   ar
    18     4     5   ar
    19     5     6   ar
    20     6     7    1
    21     6     8   ar
    22     8    10    1
    23    10    11   ar
    24    11    12   ar
    25    12    13   ar
    26    13    14   ar
    27    14    15   ar
    28    15    16   ar
    29    16    17   ar
    30    17    18   ar
    31     8     9   ar
    32    24    19   ar
    33     9     3   ar
    34    33    28    1
    35    18    10   ar
    36    18    13   ar
    37    31    34    1
    38     1     2    1
@<TRIPOS>MOLECULE
*****
 34 38 0 0 0
SMALL
GASTEIGER

@<TRIPOS>ATOM
      1 N         138.6752  138.5722  163.7038 N.pl3   1  UNL1       -0.2802
      2 H         138.3802  137.6646  163.4620 H       1  UNL1        0.1552
      3 C         138.7286  139.6467  162.6585 C.ar    1  UNL1        0.2208
      4 N         138.1277  139.4071  161.3052 N.ar    1  UNL1       -0.2111
      5 C         138.1811  140.4817  160.2600 C.ar    1  UNL1        0.1147
      6 C         138.8353  141.7958  160.5681 C.ar    1  UNL1        0.0960
      7 CL        138.8887  142.8704  159.5229 Cl      1  UNL1       -0.0790
      8 C         139.4363  142.0354  161.9215 C.ar    1  UNL1        0.1138
      9 N         139.3828  140.9609  162.9667 N.ar    1  UNL1       -0.2111
     10 C         140.0905  143.3496  162.2297 C.ar    1  UNL1        0.1031
     11 C         139.5534  144.7055  161.8791 C.ar    1  UNL1        0.1196
     12 N         140.5277  145.7325  162.3752 N.ar    1  UNL1       -0.2248
     13 C         141.6670  145.0112  163.0324 C.ar    1  UNL1        0.1479
     14 C         142.9155  145.5052  163.7011 C.ar    1  UNL1        0.0374
     15 C         143.8937  144.5264  164.2799 C.ar    1  UNL1        0.0046
     16 C         143.6235  143.0537  164.1899 C.ar    1  UNL1        0.0191
     17 C         142.3750  142.5597  163.5212 C.ar    1  UNL1        0.0815
     18 N         141.3968  143.5385  162.9424 N.ar    1  UNL1       -0.2874
     19 C         140.5210  139.0200  165.4765 C.ar    1  UNL1        0.1551
     20 C         140.9170  139.3282  166.8901 C.ar    1  UNL1        0.0750
     21 C         139.8634  139.4969  167.9444 C.ar    1  UNL1        0.1415
     22 C         138.4138  139.3573  167.5852 C.ar    1  UNL1        0.0384
     23 C         138.0178  139.0490  166.1716 C.ar    1  UNL1        0.0209
     24 C         139.0713  138.8804  165.1173 C.ar    1  UNL1        0.0851
     25 C         143.0253  138.8612  164.8033 C.3     1  UNL1        0.2525
     26 O         141.5745  138.8514  164.4222 O.3     1  UNL1       -0.4701
     27 O         140.2596  139.8051  169.3579 O.3     1  UNL1       -0.4790
     28 C         140.7964  141.1614  169.7075 C.3     1  UNL1        0.1687
     29 C         139.8968  142.3605  169.6549 C.3     1  UNL1        0.0606
     30 C         140.4337  143.7168  170.0045 C.3     1  UNL1        0.0723
     31 N         141.8702  143.8740  170.4068 N.3     1  UNL1       -0.2973
     32 C         142.7698  142.6749  170.4594 C.3     1  UNL1        0.0723
     33 C         142.2330  141.3186  170.1098 C.3     1  UNL1        0.0606
     34 H         141.8713  144.2842  171.3407 H       1  UNL1        0.1233
@<TRIPOS>BOND
     1    25    26    1
     2    26    19    1
     3    19    20   ar
     4    20    21   ar
     5    21    27    1
     6    27    28    1
     7    28    29    1
     8    29    30    1
     9    30    31    1
    10    31    32    1
    11    32    33    1
    12    21    22   ar
    13    22    23   ar
    14    23    24   ar
    15    24     1    1
    16     1     3    1
    17     3     4   ar
    18     4     5   ar
    19     5     6   ar
    20     6     7    1
    21     6     8   ar
    22     8    10    1
    23    10    11   ar
    24    11    12   ar
    25    12    13   ar
    26    13    14   ar
    27    14    15   ar
    28    15    16   ar
    29    16    17   ar
    30    17    18   ar
    31     8     9   ar
    32    24    19   ar
    33     9     3   ar
    34    33    28    1
    35    18    10   ar
    36    18    13   ar
    37    31    34    1
    38     1     2    1
@<TRIPOS>MOLECULE
*****
 34 38 0 0 0
SMALL
GASTEIGER

@<TRIPOS>ATOM
      1 N         140.3090  137.3143  163.8286 N.pl3   1  UNL1       -0.2802
      2 H         140.1068  136.3692  164.0160 H       1  UNL1        0.1552
      3 C         139.9929  137.8962  162.4827 C.ar    1  UNL1        0.2208
      4 N         138.5770  138.2430  162.1293 N.ar    1  UNL1       -0.2111
      5 C         138.2609  138.8249  160.7834 C.ar    1  UNL1        0.1147
      6 C         139.3607  139.0601  159.7909 C.ar    1  UNL1        0.0960
      7 CL        139.0446  139.6420  158.4450 Cl      1  UNL1       -0.0790
      8 C         140.7767  138.7133  160.1443 C.ar    1  UNL1        0.1138
      9 N         141.0927  138.1314  161.4902 N.ar    1  UNL1       -0.2111
     10 C         141.8766  138.9485  159.1518 C.ar    1  UNL1        0.1031
     11 C         142.3736  137.9626  158.1364 C.ar    1  UNL1        0.1196
     12 N         143.4767  138.6157  157.3576 N.ar    1  UNL1       -0.2248
     13 C         143.6614  140.0052  157.8916 C.ar    1  UNL1        0.1479
     14 C         144.6024  141.1097  157.5114 C.ar    1  UNL1        0.0374
     15 C         144.5544  142.4199  158.2401 C.ar    1  UNL1        0.0046
     16 C         143.5655  142.6256  159.3490 C.ar    1  UNL1        0.0191
     17 C         142.6245  141.5211  159.7292 C.ar    1  UNL1        0.0815
     18 N         142.6725  140.2109  159.0005 N.ar    1  UNL1       -0.2874
     19 C         140.0653  138.9881  165.8007 C.ar    1  UNL1        0.1551
     20 C         140.6896  139.8461  166.8610 C.ar    1  UNL1        0.0750
     21 C         142.1817  139.8883  167.0095 C.ar    1  UNL1        0.1415
     22 C         143.0494  139.0724  166.0977 C.ar    1  UNL1        0.0384
     23 C         142.4252  138.2145  165.0374 C.ar    1  UNL1        0.0209
     24 C         140.9331  138.1723  164.8889 C.ar    1  UNL1        0.0851
     25 C         137.7161  138.5250  166.8088 C.3     1  UNL1        0.2525
     26 O         138.5733  138.9460  165.6522 O.3     1  UNL1       -0.4701
     27 O         142.8058  140.7462  168.0698 O.3     1  UNL1       -0.4790
     28 C         141.9514  141.3515  169.1439 C.3     1  UNL1        0.1687
     29 C         141.4061  142.7387  168.9758 C.3     1  UNL1        0.0606
     30 C         140.5516  143.3439  170.0499 C.3     1  UNL1        0.0723
     31 N         140.2426  142.5620  171.2921 N.3     1  UNL1       -0.2973
     32 C         140.7879  141.1748  171.4602 C.3     1  UNL1        0.0723
     33 C         141.6423  140.5695  170.3861 C.3     1  UNL1        0.0606
     34 H         139.2268  142.4879  171.3483 H       1  UNL1        0.1233
@<TRIPOS>BOND
     1    25    26    1
     2    26    19    1
     3    19    20   ar
     4    20    21   ar
     5    21    27    1
     6    27    28    1
     7    28    29    1
     8    29    30    1
     9    30    31    1
    10    31    32    1
    11    32    33    1
    12    21    22   ar
    13    22    23   ar
    14    23    24   ar
    15    24     1    1
    16     1     3    1
    17     3     4   ar
    18     4     5   ar
    19     5     6   ar
    20     6     7    1
    21     6     8   ar
    22     8    10    1
    23    10    11   ar
    24    11    12   ar
    25    12    13   ar
    26    13    14   ar
    27    14    15   ar
    28    15    16   ar
    29    16    17   ar
    30    17    18   ar
    31     8     9   ar
    32    24    19   ar
    33     9     3   ar
    34    33    28    1
    35    18    10   ar
    36    18    13   ar
    37    31    34    1
    38     1     2    1
