@<TRIPOS>MOLECULE
*****
 27 28 0 0 0
SMALL
GASTEIGER

@<TRIPOS>ATOM
      1 C         139.9720  141.0499  169.0755 C.ar    1  UNL1        0.1331
      2 N         140.0891  140.9517  167.5834 N.ar    1  UNL1       -0.2295
      3 C         139.1126  139.9166  167.1089 C.ar    1  UNL1        0.0996
      4 C         138.3920  139.3751  168.3079 C.ar    1  UNL1        0.0927
      5 N         138.9232  140.0755  169.5233 N.ar    1  UNL1       -0.3384
      6 H         138.6341  139.9225  170.4519 H       1  UNL1        0.1672
      7 C         138.8949  139.4967  165.6854 C.ar    1  UNL1        0.0194
      8 C         138.3712  140.4833  164.6842 C.ar    1  UNL1        0.0047
      9 C         138.1535  140.0634  163.2607 C.ar    1  UNL1        0.0372
     10 C         138.4596  138.6570  162.8385 C.ar    1  UNL1        0.1468
     11 C         138.9833  137.6704  163.8396 C.ar    1  UNL1        0.0372
     12 C         139.2009  138.0903  165.2631 C.ar    1  UNL1        0.0047
     13 O         138.2419  138.2371  161.4149 O.3     1  UNL1       -0.4045
     14 C         139.0852  138.8245  160.3224 C.3     1  UNL1        0.5753
     15 F         139.9286  139.4120  159.2298 F       1  UNL1       -0.1328
     16 F         140.2702  138.0523  160.8218 F       1  UNL1       -0.1328
     17 F         137.9003  139.5968  159.8229 F       1  UNL1       -0.1328
     18 C         141.1698  140.7896  170.8069 C.3     1  UNL1        0.0274
     19 C         140.7646  141.9623  169.9639 C.3     1  UNL1        0.1084
     20 C         140.3594  143.1350  169.1210 C.3     1  UNL1        0.0274
     21 N         141.5572  142.8747  170.8524 N.am    1  UNL1       -0.2859
     22 C         142.9708  143.2273  170.4954 C.2     1  UNL1        0.2978
     23 N         143.7634  144.1397  171.3838 N.am    1  UNL1       -0.3133
     24 O         143.5918  142.6675  169.2499 O.2     1  UNL1       -0.2531
     25 H         141.1497  143.2421  171.6698 H       1  UNL1        0.1513
     26 H         143.3558  144.5071  172.2012 H       1  UNL1        0.1465
     27 H         144.6912  144.3711  171.1495 H       1  UNL1        0.1465
@<TRIPOS>BOND
     1    18    19    1
     2    19    20    1
     3    19    21    1
     4    21    22   am
     5    22    23   am
     6    22    24    2
     7    19     1    1
     8     1     2   ar
     9     2     3   ar
    10     3     7    1
    11     7     8   ar
    12     8     9   ar
    13     9    10   ar
    14    10    13    1
    15    13    14    1
    16    14    15    1
    17    14    16    1
    18    14    17    1
    19    10    11   ar
    20    11    12   ar
    21     3     4   ar
    22     4     5   ar
    23     5     1   ar
    24    12     7   ar
    25    21    25    1
    26    23    26    1
    27    23    27    1
    28     5     6    1
@<TRIPOS>MOLECULE
*****
 27 28 0 0 0
SMALL
GASTEIGER

@<TRIPOS>ATOM
      1 C         140.1266  143.9435  161.9368 C.ar    1  UNL1        0.1331
      2 N         140.6007  143.2795  163.1954 N.ar    1  UNL1       -0.2295
      3 C         139.4200  142.6209  163.8452 C.ar    1  UNL1        0.0996
      4 C         138.2161  142.8779  162.9881 C.ar    1  UNL1        0.0927
      5 N         138.6528  143.6953  161.8086 N.ar    1  UNL1       -0.3384
      6 H         138.0738  144.0131  161.0786 H       1  UNL1        0.1672
      7 C         139.4397  141.8420  165.1270 C.ar    1  UNL1        0.0194
      8 C         140.2449  142.3357  166.2923 C.ar    1  UNL1        0.0047
      9 C         140.2646  141.5568  167.5740 C.ar    1  UNL1        0.0372
     10 C         139.4791  140.2843  167.6905 C.ar    1  UNL1        0.1468
     11 C         138.6739  139.7906  166.5253 C.ar    1  UNL1        0.0372
     12 C         138.6542  140.5694  165.2435 C.ar    1  UNL1        0.0047
     13 O         139.4988  139.5054  168.9724 O.3     1  UNL1       -0.4045
     14 C         140.0206  140.1398  170.2275 C.3     1  UNL1        0.5753
     15 F         140.5424  140.7742  171.4826 F       1  UNL1       -0.1328
     16 F         138.8013  141.0109  170.2940 F       1  UNL1       -0.1328
     17 F         141.2398  139.2686  170.1609 F       1  UNL1       -0.1328
     18 C         140.0634  145.9003  161.1201 C.3     1  UNL1        0.0274
     19 C         140.9769  144.7195  160.9751 C.3     1  UNL1        0.1084
     20 C         141.8905  143.5387  160.8301 C.3     1  UNL1        0.0274
     21 N         141.8272  145.4955  160.0135 N.am    1  UNL1       -0.2859
     22 C         141.5335  145.4452  158.5434 C.2     1  UNL1        0.2978
     23 N         142.3838  146.2212  157.5817 N.am    1  UNL1       -0.3133
     24 O         140.3895  144.6189  158.0349 O.2     1  UNL1       -0.2531
     25 H         142.5781  146.0378  160.3472 H       1  UNL1        0.1513
     26 H         143.1347  146.7635  157.9154 H       1  UNL1        0.1465
     27 H         142.1911  146.1882  156.6168 H       1  UNL1        0.1465
@<TRIPOS>BOND
     1    18    19    1
     2    19    20    1
     3    19    21    1
     4    21    22   am
     5    22    23   am
     6    22    24    2
     7    19     1    1
     8     1     2   ar
     9     2     3   ar
    10     3     7    1
    11     7     8   ar
    12     8     9   ar
    13     9    10   ar
    14    10    13    1
    15    13    14    1
    16    14    15    1
    17    14    16    1
    18    14    17    1
    19    10    11   ar
    20    11    12   ar
    21     3     4   ar
    22     4     5   ar
    23     5     1   ar
    24    12     7   ar
    25    21    25    1
    26    23    26    1
    27    23    27    1
    28     5     6    1
@<TRIPOS>MOLECULE
*****
 27 28 0 0 0
SMALL
GASTEIGER

@<TRIPOS>ATOM
      1 C         139.1354  144.0720  162.5792 C.ar    1  UNL1        0.1331
      2 N         139.9460  143.2284  163.5179 N.ar    1  UNL1       -0.2295
      3 C         139.0792  142.8759  164.6903 C.ar    1  UNL1        0.0996
      4 C         137.7329  143.5016  164.4761 C.ar    1  UNL1        0.0927
      5 N         137.7676  144.2409  163.1714 N.ar    1  UNL1       -0.3384
      6 H         137.0233  144.7479  162.7736 H       1  UNL1        0.1672
      7 C         139.4872  142.0436  165.8697 C.ar    1  UNL1        0.0194
      8 C         139.0207  140.6225  165.9822 C.ar    1  UNL1        0.0047
      9 C         139.4287  139.7904  167.1616 C.ar    1  UNL1        0.0372
     10 C         140.3031  140.3794  168.2286 C.ar    1  UNL1        0.1468
     11 C         140.7696  141.8006  168.1161 C.ar    1  UNL1        0.0372
     12 C         140.3617  142.6327  166.9367 C.ar    1  UNL1        0.0047
     13 O         140.7111  139.5472  169.4081 O.3     1  UNL1       -0.4045
     14 C         142.0557  139.7513  170.0408 C.3     1  UNL1        0.5753
     15 F         143.4003  139.9554  170.6737 F       1  UNL1       -0.1328
     16 F         141.4138  140.5217  171.1563 F       1  UNL1       -0.1328
     17 F         142.6976  138.9809  168.9253 F       1  UNL1       -0.1328
     18 C         139.4165  143.3120  160.6187 C.3     1  UNL1        0.0274
     19 C         139.6093  144.6460  161.2769 C.3     1  UNL1        0.1084
     20 C         139.8021  145.9800  161.9351 C.3     1  UNL1        0.0274
     21 N         140.0832  145.2200  159.9746 N.am    1  UNL1       -0.2859
     22 C         141.5318  145.1266  159.5968 C.2     1  UNL1        0.2978
     23 N         142.0058  145.7005  158.2945 N.am    1  UNL1       -0.3133
     24 O         142.5065  144.4591  160.5212 O.2     1  UNL1       -0.2531
     25 H         139.4435  145.6580  159.3679 H       1  UNL1        0.1513
     26 H         141.3660  146.1386  157.6878 H       1  UNL1        0.1465
     27 H         142.9565  145.6392  158.0465 H       1  UNL1        0.1465
@<TRIPOS>BOND
     1    18    19    1
     2    19    20    1
     3    19    21    1
     4    21    22   am
     5    22    23   am
     6    22    24    2
     7    19     1    1
     8     1     2   ar
     9     2     3   ar
    10     3     7    1
    11     7     8   ar
    12     8     9   ar
    13     9    10   ar
    14    10    13    1
    15    13    14    1
    16    14    15    1
    17    14    16    1
    18    14    17    1
    19    10    11   ar
    20    11    12   ar
    21     3     4   ar
    22     4     5   ar
    23     5     1   ar
    24    12     7   ar
    25    21    25    1
    26    23    26    1
    27    23    27    1
    28     5     6    1
@<TRIPOS>MOLECULE
*****
 27 28 0 0 0
SMALL
GASTEIGER

@<TRIPOS>ATOM
      1 C         139.5097  139.8615  167.9652 C.ar    1  UNL1        0.1331
      2 N         139.7235  140.0999  166.4997 N.ar    1  UNL1       -0.2295
      3 C         138.6064  139.4324  165.7537 C.ar    1  UNL1        0.0996
      4 C         137.7022  138.7815  166.7580 C.ar    1  UNL1        0.0927
      5 N         138.2605  139.0466  168.1248 N.ar    1  UNL1       -0.3384
      6 H         137.8747  138.7397  168.9770 H       1  UNL1        0.1672
      7 C         138.4253  139.4184  164.2647 C.ar    1  UNL1        0.0194
      8 C         138.7890  138.1952  163.4764 C.ar    1  UNL1        0.0047
      9 C         138.6079  138.1812  161.9875 C.ar    1  UNL1        0.0372
     10 C         138.0630  139.3904  161.2868 C.ar    1  UNL1        0.1468
     11 C         137.6993  140.6136  162.0751 C.ar    1  UNL1        0.0372
     12 C         137.8804  140.6276  163.5640 C.ar    1  UNL1        0.0047
     13 O         137.8819  139.3764  159.7978 O.3     1  UNL1       -0.4045
     14 C         138.5854  140.3919  158.9471 C.3     1  UNL1        0.5753
     15 F         139.2889  141.4075  158.0964 F       1  UNL1       -0.1328
     16 F         137.2949  140.6997  158.2474 F       1  UNL1       -0.1328
     17 F         139.8760  140.0841  159.6469 F       1  UNL1       -0.1328
     18 C         141.5978  140.1439  168.2103 C.3     1  UNL1        0.0274
     19 C         140.3905  140.3519  169.0759 C.3     1  UNL1        0.1084
     20 C         139.1832  140.5598  169.9414 C.3     1  UNL1        0.0274
     21 N         141.2713  140.8422  170.1866 N.am    1  UNL1       -0.2859
     22 C         141.5552  142.3083  170.3270 C.2     1  UNL1        0.2978
     23 N         142.4360  142.7987  171.4378 N.am    1  UNL1       -0.3133
     24 O         140.9584  143.2842  169.3567 O.2     1  UNL1       -0.2531
     25 H         141.6630  140.2017  170.8235 H       1  UNL1        0.1513
     26 H         142.8277  142.1582  172.0746 H       1  UNL1        0.1465
     27 H         142.6224  143.7610  171.5299 H       1  UNL1        0.1465
@<TRIPOS>BOND
     1    18    19    1
     2    19    20    1
     3    19    21    1
     4    21    22   am
     5    22    23   am
     6    22    24    2
     7    19     1    1
     8     1     2   ar
     9     2     3   ar
    10     3     7    1
    11     7     8   ar
    12     8     9   ar
    13     9    10   ar
    14    10    13    1
    15    13    14    1
    16    14    15    1
    17    14    16    1
    18    14    17    1
    19    10    11   ar
    20    11    12   ar
    21     3     4   ar
    22     4     5   ar
    23     5     1   ar
    24    12     7   ar
    25    21    25    1
    26    23    26    1
    27    23    27    1
    28     5     6    1
@<TRIPOS>MOLECULE
*****
 27 28 0 0 0
SMALL
GASTEIGER

@<TRIPOS>ATOM
      1 C         142.1115  139.7945  168.0153 C.ar    1  UNL1        0.1331
      2 N         142.0463  140.1023  166.5487 N.ar    1  UNL1       -0.2295
      3 C         143.0237  139.2090  165.8437 C.ar    1  UNL1        0.0996
      4 C         143.6929  138.3492  166.8746 C.ar    1  UNL1        0.0927
      5 N         143.1292  138.7111  168.2168 N.ar    1  UNL1       -0.3384
      6 H         143.3826  138.3082  169.0786 H       1  UNL1        0.1672
      7 C         143.2857  139.1806  164.3670 C.ar    1  UNL1        0.0194
      8 C         142.6045  138.1604  163.5039 C.ar    1  UNL1        0.0047
      9 C         142.8666  138.1320  162.0273 C.ar    1  UNL1        0.0372
     10 C         143.8099  139.1238  161.4137 C.ar    1  UNL1        0.1468
     11 C         144.4912  140.1440  162.2769 C.ar    1  UNL1        0.0372
     12 C         144.2291  140.1724  163.7535 C.ar    1  UNL1        0.0047
     13 O         144.0720  139.0954  159.9370 O.3     1  UNL1       -0.4045
     14 C         142.9273  139.1698  158.9706 C.3     1  UNL1        0.5753
     15 F         141.7825  139.2442  158.0041 F       1  UNL1       -0.1328
     16 F         142.8163  140.6454  159.2156 F       1  UNL1       -0.1328
     17 F         143.0382  137.6941  158.7256 F       1  UNL1       -0.1328
     18 C         140.0397  140.0749  168.3744 C.3     1  UNL1        0.0274
     19 C         141.3013  140.4544  169.0915 C.3     1  UNL1        0.1084
     20 C         142.5630  140.8339  169.8086 C.3     1  UNL1        0.0274
     21 N         140.4912  141.1142  170.1677 N.am    1  UNL1       -0.2859
     22 C         140.1045  142.5576  170.0369 C.2     1  UNL1        0.2978
     23 N         139.2944  143.2174  171.1131 N.am    1  UNL1       -0.3133
     24 O         140.5281  143.3412  168.8300 O.2     1  UNL1       -0.2531
     25 H         140.2132  140.5999  170.9598 H       1  UNL1        0.1513
     26 H         139.0164  142.7032  171.9053 H       1  UNL1        0.1465
     27 H         139.0406  144.1648  171.0273 H       1  UNL1        0.1465
@<TRIPOS>BOND
     1    18    19    1
     2    19    20    1
     3    19    21    1
     4    21    22   am
     5    22    23   am
     6    22    24    2
     7    19     1    1
     8     1     2   ar
     9     2     3   ar
    10     3     7    1
    11     7     8   ar
    12     8     9   ar
    13     9    10   ar
    14    10    13    1
    15    13    14    1
    16    14    15    1
    17    14    16    1
    18    14    17    1
    19    10    11   ar
    20    11    12   ar
    21     3     4   ar
    22     4     5   ar
    23     5     1   ar
    24    12     7   ar
    25    21    25    1
    26    23    26    1
    27    23    27    1
    28     5     6    1
@<TRIPOS>MOLECULE
*****
 27 28 0 0 0
SMALL
GASTEIGER

@<TRIPOS>ATOM
      1 C         138.1266  140.4856  162.4670 C.ar    1  UNL1        0.1331
      2 N         139.1804  140.3740  163.5287 N.ar    1  UNL1       -0.2295
      3 C         138.7009  141.1206  164.7381 C.ar    1  UNL1        0.0996
      4 C         137.3508  141.6938  164.4238 C.ar    1  UNL1        0.0927
      5 N         136.9959  141.3014  163.0203 N.ar    1  UNL1       -0.3384
      6 H         136.1664  141.5377  162.5455 H       1  UNL1        0.1672
      7 C         139.4415  141.2682  166.0342 C.ar    1  UNL1        0.0194
      8 C         139.4736  140.1322  167.0131 C.ar    1  UNL1        0.0047
      9 C         140.2142  140.2798  168.3091 C.ar    1  UNL1        0.0372
     10 C         140.9227  141.5634  168.6262 C.ar    1  UNL1        0.1468
     11 C         140.8905  142.6994  167.6472 C.ar    1  UNL1        0.0372
     12 C         140.1499  142.5518  166.3512 C.ar    1  UNL1        0.0047
     13 O         141.6633  141.7109  169.9223 O.3     1  UNL1       -0.4045
     14 C         143.1197  142.0698  169.9172 C.3     1  UNL1        0.5753
     15 F         144.5762  142.4287  169.9122 F       1  UNL1       -0.1328
     16 F         142.7814  143.4494  170.3991 F       1  UNL1       -0.1328
     17 F         143.4579  140.6902  169.4353 F       1  UNL1       -0.1328
     18 C         137.7708  138.5599  161.6516 C.3     1  UNL1        0.0274
     19 C         138.1921  139.8868  161.0933 C.3     1  UNL1        0.1084
     20 C         138.6135  141.2137  160.5349 C.3     1  UNL1        0.0274
     21 N         138.2576  139.2880  159.7196 N.am    1  UNL1       -0.2859
     22 C         139.5390  138.6858  159.2243 C.2     1  UNL1        0.2978
     23 N         139.6045  138.0869  157.8506 N.am    1  UNL1       -0.3133
     24 O         140.7549  138.6824  160.1027 O.2     1  UNL1       -0.2531
     25 H         137.4596  139.2902  159.1431 H       1  UNL1        0.1513
     26 H         138.8065  138.0892  157.2741 H       1  UNL1        0.1465
     27 H         140.4456  137.6917  157.5255 H       1  UNL1        0.1465
@<TRIPOS>BOND
     1    18    19    1
     2    19    20    1
     3    19    21    1
     4    21    22   am
     5    22    23   am
     6    22    24    2
     7    19     1    1
     8     1     2   ar
     9     2     3   ar
    10     3     7    1
    11     7     8   ar
    12     8     9   ar
    13     9    10   ar
    14    10    13    1
    15    13    14    1
    16    14    15    1
    17    14    16    1
    18    14    17    1
    19    10    11   ar
    20    11    12   ar
    21     3     4   ar
    22     4     5   ar
    23     5     1   ar
    24    12     7   ar
    25    21    25    1
    26    23    26    1
    27    23    27    1
    28     5     6    1
@<TRIPOS>MOLECULE
*****
 27 28 0 0 0
SMALL
GASTEIGER

@<TRIPOS>ATOM
      1 C         142.0782  142.2114  167.2419 C.ar    1  UNL1        0.1331
      2 N         141.1454  142.7179  166.1820 N.ar    1  UNL1       -0.2295
      3 C         141.9736  143.2109  165.0327 C.ar    1  UNL1        0.0996
      4 C         143.4183  143.0091  165.3822 C.ar    1  UNL1        0.0927
      5 N         143.4829  142.3913  166.7475 N.ar    1  UNL1       -0.3384
      6 H         144.3033  142.1469  167.2338 H       1  UNL1        0.1672
      7 C         141.4492  143.8020  163.7576 C.ar    1  UNL1        0.0194
      8 C         140.2728  144.7320  163.7903 C.ar    1  UNL1        0.0047
      9 C         139.7484  145.3230  162.5153 C.ar    1  UNL1        0.0372
     10 C         140.4005  144.9840  161.2076 C.ar    1  UNL1        0.1468
     11 C         141.5769  144.0540  161.1750 C.ar    1  UNL1        0.0372
     12 C         142.1012  143.4630  162.4500 C.ar    1  UNL1        0.0047
     13 O         139.8760  145.5751  159.9326 O.3     1  UNL1       -0.4045
     14 C         140.2841  144.9922  158.6121 C.3     1  UNL1        0.5753
     15 F         140.6922  144.4092  157.2916 F       1  UNL1       -0.1328
     16 F         141.3101  146.0744  158.4514 F       1  UNL1       -0.1328
     17 F         139.2581  143.9099  158.7729 F       1  UNL1       -0.1328
     18 C         142.5763  140.4525  168.3182 C.3     1  UNL1        0.0274
     19 C         141.6767  141.6274  168.5640 C.3     1  UNL1        0.1084
     20 C         140.7772  142.8023  168.8097 C.3     1  UNL1        0.0274
     21 N         141.2753  141.0435  169.8860 N.am    1  UNL1       -0.2859
     22 C         140.1202  140.0898  169.9649 C.2     1  UNL1        0.2978
     23 N         139.7188  139.5058  171.2870 N.am    1  UNL1       -0.3133
     24 O         139.3666  139.7200  168.7218 O.2     1  UNL1       -0.2531
     25 H         141.7699  141.2862  170.7019 H       1  UNL1        0.1513
     26 H         140.2134  139.7485  172.1029 H       1  UNL1        0.1465
     27 H         138.9607  138.8799  171.3388 H       1  UNL1        0.1465
@<TRIPOS>BOND
     1    18    19    1
     2    19    20    1
     3    19    21    1
     4    21    22   am
     5    22    23   am
     6    22    24    2
     7    19     1    1
     8     1     2   ar
     9     2     3   ar
    10     3     7    1
    11     7     8   ar
    12     8     9   ar
    13     9    10   ar
    14    10    13    1
    15    13    14    1
    16    14    15    1
    17    14    16    1
    18    14    17    1
    19    10    11   ar
    20    11    12   ar
    21     3     4   ar
    22     4     5   ar
    23     5     1   ar
    24    12     7   ar
    25    21    25    1
    26    23    26    1
    27    23    27    1
    28     5     6    1
@<TRIPOS>MOLECULE
*****
 27 28 0 0 0
SMALL
GASTEIGER

@<TRIPOS>ATOM
      1 C         142.0788  142.1881  167.1736 C.ar    1  UNL1        0.1331
      2 N         141.1390  142.6404  166.0956 N.ar    1  UNL1       -0.2295
      3 C         141.9604  143.1437  164.9458 C.ar    1  UNL1        0.0996
      4 C         143.4078  143.0025  165.3132 C.ar    1  UNL1        0.0927
      5 N         143.4810  142.4119  166.6901 N.ar    1  UNL1       -0.3384
      6 H         144.3047  142.2071  167.1889 H       1  UNL1        0.1672
      7 C         141.4278  143.6920  163.6551 C.ar    1  UNL1        0.0194
      8 C         141.4229  142.8374  162.4224 C.ar    1  UNL1        0.0047
      9 C         140.8903  143.3857  161.1318 C.ar    1  UNL1        0.0372
     10 C         140.3626  144.7886  161.0739 C.ar    1  UNL1        0.1468
     11 C         140.3675  145.6432  162.3066 C.ar    1  UNL1        0.0372
     12 C         140.9001  145.0949  163.5972 C.ar    1  UNL1        0.0047
     13 O         139.8300  145.3369  159.7832 O.3     1  UNL1       -0.4045
     14 C         140.4630  144.9411  158.4822 C.3     1  UNL1        0.5753
     15 F         141.0960  144.5453  157.1812 F       1  UNL1       -0.1328
     16 F         139.3181  144.0117  158.2080 F       1  UNL1       -0.1328
     17 F         141.6079  145.8706  158.7565 F       1  UNL1       -0.1328
     18 C         140.7696  142.7778  168.7351 C.3     1  UNL1        0.0274
     19 C         141.6855  141.6130  168.5020 C.3     1  UNL1        0.1084
     20 C         142.6013  140.4481  168.2689 C.3     1  UNL1        0.0274
     21 N         141.2921  141.0379  169.8303 N.am    1  UNL1       -0.2859
     22 C         140.1338  140.0894  169.9236 C.2     1  UNL1        0.2978
     23 N         139.7405  139.5143  171.2519 N.am    1  UNL1       -0.3133
     24 O         139.3689  139.7160  168.6885 O.2     1  UNL1       -0.2531
     25 H         141.7942  141.2829  170.6410 H       1  UNL1        0.1513
     26 H         140.2426  139.7593  172.0625 H       1  UNL1        0.1465
     27 H         138.9803  138.8918  171.3131 H       1  UNL1        0.1465
@<TRIPOS>BOND
     1    18    19    1
     2    19    20    1
     3    19    21    1
     4    21    22   am
     5    22    23   am
     6    22    24    2
     7    19     1    1
     8     1     2   ar
     9     2     3   ar
    10     3     7    1
    11     7     8   ar
    12     8     9   ar
    13     9    10   ar
    14    10    13    1
    15    13    14    1
    16    14    15    1
    17    14    16    1
    18    14    17    1
    19    10    11   ar
    20    11    12   ar
    21     3     4   ar
    22     4     5   ar
    23     5     1   ar
    24    12     7   ar
    25    21    25    1
    26    23    26    1
    27    23    27    1
    28     5     6    1
@<TRIPOS>MOLECULE
*****
 27 28 0 0 0
SMALL
GASTEIGER

@<TRIPOS>ATOM
      1 C         142.7700  140.1242  167.3863 C.ar    1  UNL1        0.1331
      2 N         142.5119  140.2523  165.9142 N.ar    1  UNL1       -0.2295
      3 C         142.9522  138.9794  165.2539 C.ar    1  UNL1        0.0996
      4 C         143.4823  138.0646  166.3179 C.ar    1  UNL1        0.0927
      5 N         143.3697  138.7721  167.6358 N.ar    1  UNL1       -0.3384
      6 H         143.6417  138.4123  168.5109 H       1  UNL1        0.1672
      7 C         142.8757  138.6748  163.7871 C.ar    1  UNL1        0.0194
      8 C         141.6199  138.0959  163.2058 C.ar    1  UNL1        0.0047
      9 C         141.5435  137.7914  161.7391 C.ar    1  UNL1        0.0372
     10 C         142.7228  138.0656  160.8537 C.ar    1  UNL1        0.1468
     11 C         143.9786  138.6444  161.4350 C.ar    1  UNL1        0.0372
     12 C         144.0550  138.9490  162.9017 C.ar    1  UNL1        0.0047
     13 O         142.6463  137.7610  159.3869 O.3     1  UNL1       -0.4045
     14 C         142.0287  138.7527  158.4461 C.3     1  UNL1        0.5753
     15 F         141.4110  139.7444  157.5054 F       1  UNL1       -0.1328
     16 F         143.3296  139.4959  158.3755 F       1  UNL1       -0.1328
     17 F         140.7277  138.0094  158.5168 F       1  UNL1       -0.1328
     18 C         142.5488  140.1162  169.4960 C.3     1  UNL1        0.0274
     19 C         142.4793  141.1654  168.4262 C.3     1  UNL1        0.1084
     20 C         142.4098  142.2145  167.3564 C.3     1  UNL1        0.0274
     21 N         142.1887  142.2065  169.4662 N.am    1  UNL1       -0.2859
     22 C         143.3162  142.9499  170.1188 C.2     1  UNL1        0.2978
     23 N         143.0256  143.9910  171.1587 N.am    1  UNL1       -0.3133
     24 O         144.7345  142.6521  169.7315 O.2     1  UNL1       -0.2531
     25 H         141.2578  142.4020  169.7203 H       1  UNL1        0.1513
     26 H         142.0948  144.1865  171.4129 H       1  UNL1        0.1465
     27 H         143.7657  144.4789  171.5871 H       1  UNL1        0.1465
@<TRIPOS>BOND
     1    18    19    1
     2    19    20    1
     3    19    21    1
     4    21    22   am
     5    22    23   am
     6    22    24    2
     7    19     1    1
     8     1     2   ar
     9     2     3   ar
    10     3     7    1
    11     7     8   ar
    12     8     9   ar
    13     9    10   ar
    14    10    13    1
    15    13    14    1
    16    14    15    1
    17    14    16    1
    18    14    17    1
    19    10    11   ar
    20    11    12   ar
    21     3     4   ar
    22     4     5   ar
    23     5     1   ar
    24    12     7   ar
    25    21    25    1
    26    23    26    1
    27    23    27    1
    28     5     6    1
