@<TRIPOS>MOLECULE
*****
 29 32 0 0 0
SMALL
GASTEIGER

@<TRIPOS>ATOM
      1 C         140.3890  142.7932  165.6539 C.ar    1  UNL1       -0.0214
      2 C         139.3004  143.7427  165.2497 C.ar    1  UNL1       -0.0029
      3 C         139.5289  144.7119  164.1279 C.ar    1  UNL1        0.0155
      4 C         140.8460  144.7315  163.4102 C.ar    1  UNL1        0.0648
      5 C         141.9345  143.7819  163.8145 C.ar    1  UNL1        0.0155
      6 C         141.7060  142.8128  164.9363 C.ar    1  UNL1       -0.0029
      7 N         138.8851  139.7632  166.9071 N.3     1  UNL1       -0.2687
      8 C         139.5112  140.0072  168.2482 C.3     1  UNL1        0.0727
      9 C         140.2994  141.2808  168.1670 C.3     1  UNL1        0.0214
     10 C         140.9867  142.5593  167.7890 C.3     1  UNL1        0.0072
     11 C         140.1604  141.8240  166.7758 C.3     1  UNL1        0.0350
     12 C         139.2864  140.8861  165.9971 C.3     1  UNL1        0.0764
     13 C         138.0112  138.6005  166.5404 C.3     1  UNL1        0.0989
     14 C         139.0107  137.7477  164.2991 C.2     1  UNL1       -0.0035
     15 C         138.5617  137.4825  165.7055 C.2     1  UNL1       -0.0088
     16 N         141.0745  145.7007  162.2884 N.pl3   1  UNL1       -0.2150
     17 H         141.4760  146.5806  162.4722 H       1  UNL1        0.1737
     18 S         140.6912  145.3291  160.8866 S.O2    1  UNL1        0.0736
     19 O         142.0473  144.7235  160.6764 O.2     1  UNL1       -0.1499
     20 O         139.3351  145.9348  161.0969 O.2     1  UNL1       -0.1499
     21 C         140.3079  144.9577  159.4849 C.ar    1  UNL1        0.1251
     22 C         139.6434  143.6406  159.2131 C.ar    1  UNL1        0.0199
     23 C         139.2600  143.2691  157.8113 C.ar    1  UNL1       -0.0029
     24 C         139.5412  144.2145  156.6812 C.ar    1  UNL1       -0.0224
     25 C         140.2058  145.5316  156.9530 C.ar    1  UNL1       -0.0029
     26 C         140.5891  145.9031  158.3548 C.ar    1  UNL1        0.0199
     27 C         139.1579  143.8430  155.2795 C.3     1  UNL1        0.0224
     28 C         139.6838  144.6391  154.1220 C.3     1  UNL1        0.0047
     29 C         138.2486  142.6753  155.0351 C.3     1  UNL1        0.0047
@<TRIPOS>BOND
     1    14    15    2
     2    15    13    1
     3    13     7    1
     4     7     8    1
     5     9     8    1
     6     9    10    1
     7    10    11    1
     8    11     1    1
     9     1     2   ar
    10     2     3   ar
    11     3     4   ar
    12     4    16    1
    13    16    18    1
    14    18    19    2
    15    18    20    2
    16    18    21    1
    17    21    22   ar
    18    22    23   ar
    19    23    24   ar
    20    24    27    1
    21    27    28    1
    22    27    29    1
    23    24    25   ar
    24    25    26   ar
    25     4     5   ar
    26     5     6   ar
    27    11    12    1
    28    12     7    1
    29    11     9    1
    30     6     1   ar
    31    26    21   ar
    32    16    17    1
@<TRIPOS>MOLECULE
*****
 29 32 0 0 0
SMALL
GASTEIGER

@<TRIPOS>ATOM
      1 C         140.4322  142.8086  165.7532 C.ar    1  UNL1       -0.0214
      2 C         139.3578  143.7796  165.3622 C.ar    1  UNL1       -0.0029
      3 C         139.5942  144.7488  164.2419 C.ar    1  UNL1        0.0155
      4 C         140.9051  144.7470  163.5127 C.ar    1  UNL1        0.0648
      5 C         141.9795  143.7760  163.9037 C.ar    1  UNL1        0.0155
      6 C         141.7431  142.8068  165.0239 C.ar    1  UNL1       -0.0029
      7 N         138.9080  139.7861  166.9997 N.3     1  UNL1       -0.2687
      8 C         139.5330  140.0247  168.3423 C.3     1  UNL1        0.0727
      9 C         140.3289  141.2938  168.2642 C.3     1  UNL1        0.0214
     10 C         141.0245  142.5686  167.8890 C.3     1  UNL1        0.0072
     11 C         140.1958  141.8395  166.8733 C.3     1  UNL1        0.0350
     12 C         139.3177  140.9077  166.0919 C.3     1  UNL1        0.0764
     13 C         138.0280  138.6291  166.6299 C.3     1  UNL1        0.0989
     14 C         139.0296  137.7708  164.3916 C.2     1  UNL1       -0.0035
     15 C         138.5739  137.5079  165.7964 C.2     1  UNL1       -0.0088
     16 N         141.1415  145.7161  162.3925 N.pl3   1  UNL1       -0.2150
     17 H         141.5413  146.5962  162.5791 H       1  UNL1        0.1737
     18 S         140.7687  145.3443  160.9880 S.O2    1  UNL1        0.0736
     19 O         139.4243  145.9825  161.1759 O.2     1  UNL1       -0.1499
     20 O         142.1132  144.7062  160.8001 O.2     1  UNL1       -0.1499
     21 C         140.3960  144.9725  159.5834 C.ar    1  UNL1        0.1251
     22 C         140.7534  145.8834  158.4465 C.ar    1  UNL1        0.0199
     23 C         140.3807  145.5116  157.0419 C.ar    1  UNL1       -0.0029
     24 C         139.6506  144.2290  156.7742 C.ar    1  UNL1       -0.0224
     25 C         139.2932  143.3180  157.9111 C.ar    1  UNL1       -0.0029
     26 C         139.6659  143.6899  159.3157 C.ar    1  UNL1        0.0199
     27 C         139.2779  143.8572  155.3696 C.3     1  UNL1        0.0224
     28 C         138.3020  142.7454  155.1218 C.3     1  UNL1        0.0047
     29 C         139.8812  144.5973  154.2128 C.3     1  UNL1        0.0047
@<TRIPOS>BOND
     1    14    15    2
     2    15    13    1
     3    13     7    1
     4     7     8    1
     5     9     8    1
     6     9    10    1
     7    10    11    1
     8    11     1    1
     9     1     2   ar
    10     2     3   ar
    11     3     4   ar
    12     4    16    1
    13    16    18    1
    14    18    19    2
    15    18    20    2
    16    18    21    1
    17    21    22   ar
    18    22    23   ar
    19    23    24   ar
    20    24    27    1
    21    27    28    1
    22    27    29    1
    23    24    25   ar
    24    25    26   ar
    25     4     5   ar
    26     5     6   ar
    27    11    12    1
    28    12     7    1
    29    11     9    1
    30     6     1   ar
    31    26    21   ar
    32    16    17    1
@<TRIPOS>MOLECULE
*****
 29 32 0 0 0
SMALL
GASTEIGER

@<TRIPOS>ATOM
      1 C         140.4052  142.4777  165.3387 C.ar    1  UNL1       -0.0214
      2 C         141.3172  142.0863  164.2139 C.ar    1  UNL1       -0.0029
      3 C         141.6074  143.0598  163.1102 C.ar    1  UNL1        0.0155
      4 C         140.9855  144.4247  163.1312 C.ar    1  UNL1        0.0648
      5 C         140.0734  144.8160  164.2561 C.ar    1  UNL1        0.0155
      6 C         139.7833  143.8426  165.3597 C.ar    1  UNL1       -0.0029
      7 N         140.5772  141.5646  168.8243 N.3     1  UNL1       -0.2687
      8 C         139.8731  140.2753  168.5212 C.3     1  UNL1        0.0727
      9 C         139.5874  140.2379  167.0491 C.3     1  UNL1        0.0214
     10 C         139.4427  140.4808  165.5760 C.3     1  UNL1        0.0072
     11 C         140.1151  141.5042  166.4424 C.3     1  UNL1        0.0350
     12 C         140.7268  142.3241  167.5395 C.3     1  UNL1        0.0764
     13 C         141.0489  142.0152  170.1750 C.3     1  UNL1        0.0989
     14 C         143.6078  142.3515  169.8765 C.2     1  UNL1       -0.0035
     15 C         142.2678  142.8814  170.2932 C.2     1  UNL1       -0.0088
     16 N         141.2756  145.3982  162.0276 N.pl3   1  UNL1       -0.2150
     17 H         141.7914  146.2156  162.2151 H       1  UNL1        0.1737
     18 S         140.7800  145.1263  160.6382 S.O2    1  UNL1        0.0736
     19 O         139.3892  145.4949  161.0622 O.2     1  UNL1       -0.1499
     20 O         142.1709  144.7577  160.2142 O.2     1  UNL1       -0.1499
     21 C         140.2844  144.8544  159.2488 C.ar    1  UNL1        0.1251
     22 C         140.4700  145.8819  158.1719 C.ar    1  UNL1        0.0199
     23 C         139.9744  145.6100  156.7824 C.ar    1  UNL1       -0.0029
     24 C         139.2932  144.3106  156.4699 C.ar    1  UNL1       -0.0224
     25 C         139.1077  143.2831  157.5469 C.ar    1  UNL1       -0.0029
     26 C         139.6033  143.5550  158.9364 C.ar    1  UNL1        0.0199
     27 C         138.7977  144.0388  155.0805 C.3     1  UNL1        0.0224
     28 C         137.4062  144.4392  154.6887 C.3     1  UNL1        0.0047
     29 C         139.6936  143.3665  154.0829 C.3     1  UNL1        0.0047
@<TRIPOS>BOND
     1    14    15    2
     2    15    13    1
     3    13     7    1
     4     7     8    1
     5     9     8    1
     6     9    10    1
     7    10    11    1
     8    11     1    1
     9     1     2   ar
    10     2     3   ar
    11     3     4   ar
    12     4    16    1
    13    16    18    1
    14    18    19    2
    15    18    20    2
    16    18    21    1
    17    21    22   ar
    18    22    23   ar
    19    23    24   ar
    20    24    27    1
    21    27    28    1
    22    27    29    1
    23    24    25   ar
    24    25    26   ar
    25     4     5   ar
    26     5     6   ar
    27    11    12    1
    28    12     7    1
    29    11     9    1
    30     6     1   ar
    31    26    21   ar
    32    16    17    1
@<TRIPOS>MOLECULE
*****
 29 32 0 0 0
SMALL
GASTEIGER

@<TRIPOS>ATOM
      1 C         141.4665  138.6770  159.0663 C.ar    1  UNL1       -0.0214
      2 C         140.0005  138.9301  158.8747 C.ar    1  UNL1       -0.0029
      3 C         139.0481  138.7215  160.0147 C.ar    1  UNL1        0.0155
      4 C         139.5617  138.2599  161.3462 C.ar    1  UNL1        0.0648
      5 C         141.0278  138.0068  161.5379 C.ar    1  UNL1        0.0155
      6 C         141.9802  138.2154  160.3979 C.ar    1  UNL1       -0.0029
      7 N         143.5309  137.3281  156.4335 N.3     1  UNL1       -0.2687
      8 C         143.9488  138.7167  156.0499 C.3     1  UNL1        0.0727
      9 C         143.2616  139.6792  156.9725 C.3     1  UNL1        0.0214
     10 C         142.4516  140.3821  158.0212 C.3     1  UNL1        0.0072
     11 C         142.4189  138.8855  157.9264 C.3     1  UNL1        0.0350
     12 C         142.5853  137.4325  157.5933 C.3     1  UNL1        0.0764
     13 C         143.9797  136.0582  155.7733 C.3     1  UNL1        0.0989
     14 C         142.3623  134.0371  155.9949 C.2     1  UNL1       -0.0035
     15 C         143.6332  134.7326  156.3837 C.2     1  UNL1       -0.0088
     16 N         138.6093  138.0513  162.4862 N.pl3   1  UNL1       -0.2150
     17 H         137.8008  137.5043  162.3583 H       1  UNL1        0.1737
     18 S         138.8888  138.6762  163.8209 S.O2    1  UNL1        0.0736
     19 O         138.7063  140.0389  163.2211 O.2     1  UNL1       -0.1499
     20 O         139.0714  137.3134  164.4206 O.2     1  UNL1       -0.1499
     21 C         139.1683  139.3010  165.1555 C.ar    1  UNL1        0.1251
     22 C         138.3866  138.8734  166.3622 C.ar    1  UNL1        0.0199
     23 C         138.6661  139.4982  167.6970 C.ar    1  UNL1       -0.0029
     24 C         139.7273  140.5506  167.8251 C.ar    1  UNL1       -0.0224
     25 C         140.5090  140.9782  166.6184 C.ar    1  UNL1       -0.0029
     26 C         140.2294  140.3534  165.2836 C.ar    1  UNL1        0.0199
     27 C         140.0067  141.1753  169.1598 C.3     1  UNL1        0.0224
     28 C         140.3513  142.6325  169.2485 C.3     1  UNL1        0.0047
     29 C         139.9416  140.3429  170.4059 C.3     1  UNL1        0.0047
@<TRIPOS>BOND
     1    14    15    2
     2    15    13    1
     3    13     7    1
     4     7     8    1
     5     9     8    1
     6     9    10    1
     7    10    11    1
     8    11     1    1
     9     1     2   ar
    10     2     3   ar
    11     3     4   ar
    12     4    16    1
    13    16    18    1
    14    18    19    2
    15    18    20    2
    16    18    21    1
    17    21    22   ar
    18    22    23   ar
    19    23    24   ar
    20    24    27    1
    21    27    28    1
    22    27    29    1
    23    24    25   ar
    24    25    26   ar
    25     4     5   ar
    26     5     6   ar
    27    11    12    1
    28    12     7    1
    29    11     9    1
    30     6     1   ar
    31    26    21   ar
    32    16    17    1
@<TRIPOS>MOLECULE
*****
 29 32 0 0 0
SMALL
GASTEIGER

@<TRIPOS>ATOM
      1 C         141.6833  138.4433  159.0873 C.ar    1  UNL1       -0.0214
      2 C         140.1947  138.5646  159.2259 C.ar    1  UNL1       -0.0029
      3 C         139.5440  138.3325  160.5575 C.ar    1  UNL1        0.0155
      4 C         140.3820  137.9792  161.7503 C.ar    1  UNL1        0.0648
      5 C         141.8707  137.8579  161.6117 C.ar    1  UNL1        0.0155
      6 C         142.5214  138.0899  160.2802 C.ar    1  UNL1       -0.0029
      7 N         143.4860  137.1813  156.2289 N.3     1  UNL1       -0.2687
      8 C         143.4889  138.5543  155.6247 C.3     1  UNL1        0.0727
      9 C         142.7769  139.4776  156.5684 C.3     1  UNL1        0.0214
     10 C         142.0318  140.1429  157.6873 C.3     1  UNL1        0.0072
     11 C         142.3339  138.6753  157.7559 C.3     1  UNL1        0.0350
     12 C         142.7722  137.2562  157.5460 C.3     1  UNL1        0.0764
     13 C         144.0907  135.9498  155.6224 C.3     1  UNL1        0.0989
     14 C         143.9750  133.7534  157.0052 C.2     1  UNL1       -0.0035
     15 C         143.4732  134.6070  155.8785 C.2     1  UNL1       -0.0088
     16 N         139.7314  137.7472  163.0818 N.pl3   1  UNL1       -0.2150
     17 H         138.9101  137.2076  163.1410 H       1  UNL1        0.1737
     18 S         140.3322  138.3373  164.3231 S.O2    1  UNL1        0.0736
     19 O         140.8373  136.9826  164.7227 O.2     1  UNL1       -0.1499
     20 O         139.8271  139.6921  163.9235 O.2     1  UNL1       -0.1499
     21 C         140.9329  138.9275  165.5643 C.ar    1  UNL1        0.1251
     22 C         142.3725  138.6684  165.8970 C.ar    1  UNL1        0.0199
     23 C         142.9733  139.2586  167.1384 C.ar    1  UNL1       -0.0029
     24 C         142.1346  140.1078  168.0469 C.ar    1  UNL1       -0.0224
     25 C         140.6951  140.3669  167.7141 C.ar    1  UNL1       -0.0029
     26 C         140.0943  139.7767  166.4728 C.ar    1  UNL1        0.0199
     27 C         142.7354  140.6980  169.2881 C.3     1  UNL1        0.0224
     28 C         142.7843  139.8936  170.5533 C.3     1  UNL1        0.0047
     29 C         143.2874  142.0925  169.2642 C.3     1  UNL1        0.0047
@<TRIPOS>BOND
     1    14    15    2
     2    15    13    1
     3    13     7    1
     4     7     8    1
     5     9     8    1
     6     9    10    1
     7    10    11    1
     8    11     1    1
     9     1     2   ar
    10     2     3   ar
    11     3     4   ar
    12     4    16    1
    13    16    18    1
    14    18    19    2
    15    18    20    2
    16    18    21    1
    17    21    22   ar
    18    22    23   ar
    19    23    24   ar
    20    24    27    1
    21    27    28    1
    22    27    29    1
    23    24    25   ar
    24    25    26   ar
    25     4     5   ar
    26     5     6   ar
    27    11    12    1
    28    12     7    1
    29    11     9    1
    30     6     1   ar
    31    26    21   ar
    32    16    17    1
@<TRIPOS>MOLECULE
*****
 29 32 0 0 0
SMALL
GASTEIGER

@<TRIPOS>ATOM
      1 C         142.5683  138.2701  158.7668 C.ar    1  UNL1       -0.0214
      2 C         143.0060  139.7009  158.6602 C.ar    1  UNL1       -0.0029
      3 C         143.7228  140.3532  159.8052 C.ar    1  UNL1        0.0155
      4 C         144.0018  139.5747  161.0566 C.ar    1  UNL1        0.0648
      5 C         143.5641  138.1439  161.1632 C.ar    1  UNL1        0.0155
      6 C         142.8473  137.4917  160.0183 C.ar    1  UNL1       -0.0029
      7 N         142.5180  135.8749  156.0699 N.3     1  UNL1       -0.2687
      8 C         141.1207  136.2955  155.7225 C.3     1  UNL1        0.0727
      9 C         140.7088  137.3726  156.6817 C.3     1  UNL1        0.0214
     10 C         140.5835  138.4071  157.7607 C.3     1  UNL1        0.0072
     11 C         141.8515  137.6178  157.6220 C.3     1  UNL1        0.0350
     12 C         142.9697  136.6922  157.2438 C.3     1  UNL1        0.0764
     13 C         143.3224  134.8220  155.3669 C.3     1  UNL1        0.0989
     14 C         142.6922  132.5105  156.3716 C.2     1  UNL1       -0.0035
     15 C         143.7167  133.5701  156.0928 C.2     1  UNL1       -0.0088
     16 N         144.7186  140.2270  162.2015 N.pl3   1  UNL1       -0.2150
     17 H         145.5625  140.7088  162.0436 H       1  UNL1        0.1737
     18 S         144.1495  140.1452  163.5870 S.O2    1  UNL1        0.0736
     19 O         145.3028  139.2844  164.0099 O.2     1  UNL1       -0.1499
     20 O         142.9961  141.0061  163.1640 O.2     1  UNL1       -0.1499
     21 C         143.5804  140.0635  164.9723 C.ar    1  UNL1        0.1251
     22 C         143.6568  138.7770  165.7398 C.ar    1  UNL1        0.0199
     23 C         143.0877  138.6952  167.1253 C.ar    1  UNL1       -0.0029
     24 C         142.4421  139.8999  167.7432 C.ar    1  UNL1       -0.0224
     25 C         142.3657  141.1864  166.9758 C.ar    1  UNL1       -0.0029
     26 C         142.9349  141.2682  165.5903 C.ar    1  UNL1        0.0199
     27 C         141.8730  139.8181  169.1287 C.3     1  UNL1        0.0224
     28 C         142.5956  139.0452  170.1919 C.3     1  UNL1        0.0047
     29 C         140.5813  140.5092  169.4508 C.3     1  UNL1        0.0047
@<TRIPOS>BOND
     1    14    15    2
     2    15    13    1
     3    13     7    1
     4     7     8    1
     5     9     8    1
     6     9    10    1
     7    10    11    1
     8    11     1    1
     9     1     2   ar
    10     2     3   ar
    11     3     4   ar
    12     4    16    1
    13    16    18    1
    14    18    19    2
    15    18    20    2
    16    18    21    1
    17    21    22   ar
    18    22    23   ar
    19    23    24   ar
    20    24    27    1
    21    27    28    1
    22    27    29    1
    23    24    25   ar
    24    25    26   ar
    25     4     5   ar
    26     5     6   ar
    27    11    12    1
    28    12     7    1
    29    11     9    1
    30     6     1   ar
    31    26    21   ar
    32    16    17    1
@<TRIPOS>MOLECULE
*****
 29 32 0 0 0
SMALL
GASTEIGER

@<TRIPOS>ATOM
      1 C         143.8484  140.3653  159.6459 C.ar    1  UNL1       -0.0214
      2 C         144.1124  140.8552  158.2530 C.ar    1  UNL1       -0.0029
      3 C         143.6672  140.0409  157.0745 C.ar    1  UNL1        0.0155
      4 C         142.9580  138.7366  157.2891 C.ar    1  UNL1        0.0648
      5 C         142.6940  138.2467  158.6821 C.ar    1  UNL1        0.0155
      6 C         143.1392  139.0611  159.8605 C.ar    1  UNL1       -0.0029
      7 N         144.7372  140.5847  163.1351 N.3     1  UNL1       -0.2687
      8 C         144.9874  142.0554  162.9789 C.3     1  UNL1        0.0727
      9 C         144.7132  142.4231  161.5508 C.3     1  UNL1        0.0214
     10 C         144.3718  142.4861  160.0915 C.3     1  UNL1        0.0072
     11 C         144.2936  141.1797  160.8243 C.3     1  UNL1        0.0350
     12 C         144.3084  140.0435  161.8035 C.3     1  UNL1        0.0764
     13 C         144.8892  139.7940  164.4008 C.3     1  UNL1        0.0989
     14 C         143.7101  138.2940  166.1642 C.2     1  UNL1       -0.0035
     15 C         143.6830  139.4678  165.2307 C.2     1  UNL1       -0.0088
     16 N         142.5128  137.9223  156.1107 N.pl3   1  UNL1       -0.2150
     17 H         142.1854  138.3708  155.2978 H       1  UNL1        0.1737
     18 S         142.5665  136.4244  156.1708 S.O2    1  UNL1        0.0736
     19 O         141.0687  136.3732  156.2319 O.2     1  UNL1       -0.1499
     20 O         144.0645  136.4757  156.1097 O.2     1  UNL1       -0.1499
     21 C         142.6203  134.9267  156.2310 C.ar    1  UNL1        0.1251
     22 C         141.6476  134.1087  155.4343 C.ar    1  UNL1        0.0199
     23 C         141.7013  132.6108  155.4945 C.ar    1  UNL1       -0.0029
     24 C         142.7278  131.9309  156.3513 C.ar    1  UNL1       -0.0224
     25 C         143.7005  132.7489  157.1480 C.ar    1  UNL1       -0.0029
     26 C         143.6467  134.2468  157.0879 C.ar    1  UNL1        0.0199
     27 C         142.7815  130.4331  156.4114 C.3     1  UNL1        0.0224
     28 C         142.1065  129.6152  155.3506 C.3     1  UNL1        0.0047
     29 C         143.5102  129.7532  157.5324 C.3     1  UNL1        0.0047
@<TRIPOS>BOND
     1    14    15    2
     2    15    13    1
     3    13     7    1
     4     7     8    1
     5     9     8    1
     6     9    10    1
     7    10    11    1
     8    11     1    1
     9     1     2   ar
    10     2     3   ar
    11     3     4   ar
    12     4    16    1
    13    16    18    1
    14    18    19    2
    15    18    20    2
    16    18    21    1
    17    21    22   ar
    18    22    23   ar
    19    23    24   ar
    20    24    27    1
    21    27    28    1
    22    27    29    1
    23    24    25   ar
    24    25    26   ar
    25     4     5   ar
    26     5     6   ar
    27    11    12    1
    28    12     7    1
    29    11     9    1
    30     6     1   ar
    31    26    21   ar
    32    16    17    1
@<TRIPOS>MOLECULE
*****
 29 32 0 0 0
SMALL
GASTEIGER

@<TRIPOS>ATOM
      1 C         140.6279  144.5126  158.2311 C.ar    1  UNL1       -0.0214
      2 C         140.3009  145.1418  159.5529 C.ar    1  UNL1       -0.0029
      3 C         141.2059  144.9278  160.7299 C.ar    1  UNL1        0.0155
      4 C         142.4379  144.0845  160.5851 C.ar    1  UNL1        0.0648
      5 C         142.7649  143.4552  159.2632 C.ar    1  UNL1        0.0155
      6 C         141.8600  143.6693  158.0863 C.ar    1  UNL1       -0.0029
      7 N         139.0952  146.7266  155.8308 N.3     1  UNL1       -0.2687
      8 C         138.3892  145.5601  155.2057 C.3     1  UNL1        0.0727
      9 C         138.7771  144.3241  155.9618 C.3     1  UNL1        0.0214
     10 C         139.3372  143.2866  156.8891 C.3     1  UNL1        0.0072
     11 C         139.7230  144.7266  157.0542 C.3     1  UNL1        0.0350
     12 C         139.9196  146.2115  156.9732 C.3     1  UNL1        0.0764
     13 C         138.9946  148.1571  155.3907 C.3     1  UNL1        0.0989
     14 C         139.6169  150.0316  153.7028 C.2     1  UNL1       -0.0035
     15 C         139.8322  148.6511  154.2487 C.2     1  UNL1       -0.0088
     16 N         143.3429  143.8704  161.7620 N.pl3   1  UNL1       -0.2150
     17 H         144.3184  143.9453  161.6528 H       1  UNL1        0.1737
     18 S         142.7614  143.5423  163.1052 S.O2    1  UNL1        0.0736
     19 O         143.1449  144.9040  163.6039 O.2     1  UNL1       -0.1499
     20 O         142.3779  142.1805  162.6064 O.2     1  UNL1       -0.1499
     21 C         142.1800  143.2141  164.4483 C.ar    1  UNL1        0.1251
     22 C         143.0261  142.5397  165.4873 C.ar    1  UNL1        0.0199
     23 C         142.4446  142.2114  166.8306 C.ar    1  UNL1       -0.0029
     24 C         141.0172  142.5575  167.1348 C.ar    1  UNL1       -0.0224
     25 C         140.1711  143.2319  166.0958 C.ar    1  UNL1       -0.0029
     26 C         140.7526  143.5602  164.7526 C.ar    1  UNL1        0.0199
     27 C         140.4358  142.2293  168.4780 C.3     1  UNL1        0.0224
     28 C         140.3668  143.2831  169.5433 C.3     1  UNL1        0.0047
     29 C         139.9235  140.8472  168.7560 C.3     1  UNL1        0.0047
@<TRIPOS>BOND
     1    14    15    2
     2    15    13    1
     3    13     7    1
     4     7     8    1
     5     9     8    1
     6     9    10    1
     7    10    11    1
     8    11     1    1
     9     1     2   ar
    10     2     3   ar
    11     3     4   ar
    12     4    16    1
    13    16    18    1
    14    18    19    2
    15    18    20    2
    16    18    21    1
    17    21    22   ar
    18    22    23   ar
    19    23    24   ar
    20    24    27    1
    21    27    28    1
    22    27    29    1
    23    24    25   ar
    24    25    26   ar
    25     4     5   ar
    26     5     6   ar
    27    11    12    1
    28    12     7    1
    29    11     9    1
    30     6     1   ar
    31    26    21   ar
    32    16    17    1
@<TRIPOS>MOLECULE
*****
 29 32 0 0 0
SMALL
GASTEIGER

@<TRIPOS>ATOM
      1 C         142.5447  134.6173  154.9365 C.ar    1  UNL1       -0.0214
      2 C         143.7534  135.3413  155.4514 C.ar    1  UNL1       -0.0029
      3 C         143.6087  136.7059  156.0572 C.ar    1  UNL1        0.0155
      4 C         142.2554  137.3465  156.1482 C.ar    1  UNL1        0.0648
      5 C         141.0467  136.6224  155.6334 C.ar    1  UNL1        0.0155
      6 C         141.1914  135.2578  155.0275 C.ar    1  UNL1       -0.0029
      7 N         143.9858  131.3108  154.9933 N.3     1  UNL1       -0.2687
      8 C         143.2373  130.9631  153.7408 C.3     1  UNL1        0.0727
      9 C         142.4361  132.1633  153.3312 C.3     1  UNL1        0.0214
     10 C         141.7619  133.4943  153.1769 C.3     1  UNL1        0.0072
     11 C         142.6894  133.2527  154.3307 C.3     1  UNL1        0.0350
     12 C         143.6472  132.7258  155.3579 C.3     1  UNL1        0.0764
     13 C         144.9105  130.4028  155.7486 C.3     1  UNL1        0.0989
     14 C         144.7411  130.0605  158.3184 C.2     1  UNL1       -0.0035
     15 C         144.4012  129.6232  156.9244 C.2     1  UNL1       -0.0088
     16 N         142.1107  138.7110  156.7541 N.pl3   1  UNL1       -0.2150
     17 H         141.6577  139.4268  156.2524 H       1  UNL1        0.1737
     18 S         142.6563  138.9849  158.1242 S.O2    1  UNL1        0.0736
     19 O         141.4781  138.2845  158.7334 O.2     1  UNL1       -0.1499
     20 O         143.8346  139.6853  157.5149 O.2     1  UNL1       -0.1499
     21 C         143.2020  139.2589  159.4943 C.ar    1  UNL1        0.1251
     22 C         143.5857  140.6559  159.8831 C.ar    1  UNL1        0.0199
     23 C         144.1314  140.9299  161.2533 C.ar    1  UNL1       -0.0029
     24 C         144.2933  139.8070  162.2345 C.ar    1  UNL1       -0.0224
     25 C         143.9095  138.4100  161.8456 C.ar    1  UNL1       -0.0029
     26 C         143.3638  138.1360  160.4755 C.ar    1  UNL1        0.0199
     27 C         144.8390  140.0810  163.6046 C.3     1  UNL1        0.0224
     28 C         145.7142  141.2767  163.8380 C.3     1  UNL1        0.0047
     29 C         144.5094  139.1594  164.7413 C.3     1  UNL1        0.0047
@<TRIPOS>BOND
     1    14    15    2
     2    15    13    1
     3    13     7    1
     4     7     8    1
     5     9     8    1
     6     9    10    1
     7    10    11    1
     8    11     1    1
     9     1     2   ar
    10     2     3   ar
    11     3     4   ar
    12     4    16    1
    13    16    18    1
    14    18    19    2
    15    18    20    2
    16    18    21    1
    17    21    22   ar
    18    22    23   ar
    19    23    24   ar
    20    24    27    1
    21    27    28    1
    22    27    29    1
    23    24    25   ar
    24    25    26   ar
    25     4     5   ar
    26     5     6   ar
    27    11    12    1
    28    12     7    1
    29    11     9    1
    30     6     1   ar
    31    26    21   ar
    32    16    17    1
