@<TRIPOS>MOLECULE
*****
 18 20 0 0 0
SMALL
GASTEIGER

@<TRIPOS>ATOM
      1 N         143.4135  143.9946  171.2258 N.pl3   1  UNL1       -0.3375
      2 C         142.7414  143.0471  170.2768 C.ar    1  UNL1        0.1567
      3 N         143.3720  142.4066  169.0759 N.ar    1  UNL1       -0.2245
      4 C         142.3410  141.5374  168.4191 C.ar    1  UNL1        0.0889
      5 C         142.3928  140.6652  167.1998 C.ar    1  UNL1        0.0151
      6 C         141.1767  139.8963  166.7755 C.ar    1  UNL1       -0.0232
      7 C         139.9090  139.9996  167.5704 C.ar    1  UNL1       -0.0241
      8 C         139.8571  140.8718  168.7896 C.ar    1  UNL1        0.0035
      9 C         141.0731  141.6407  169.2140 C.ar    1  UNL1        0.0494
     10 S         141.3206  142.5738  170.3621 S.2     1  UNL1       -0.0520
     11 C         138.5929  139.3233  167.3241 C.3     1  UNL1        0.0431
     12 C         138.2198  138.3765  166.2220 C.3     1  UNL1        0.0733
     13 N         139.0704  137.8724  165.0942 N.3     1  UNL1       -0.2969
     14 C         140.5044  138.1904  164.7897 C.3     1  UNL1        0.0733
     15 C         141.4418  139.0911  165.5380 C.3     1  UNL1        0.0431
     16 H         144.3548  144.2468  171.0854 H       1  UNL1        0.1442
     17 H         142.9135  144.3643  171.9890 H       1  UNL1        0.1442
     18 H         138.5641  138.1435  164.2513 H       1  UNL1        0.1233
@<TRIPOS>BOND
     1     1     2    1
     2     2     3   ar
     3     3     4   ar
     4     4     5   ar
     5     5     6   ar
     6     6     7   ar
     7     7     8   ar
     8     8     9   ar
     9     9    10   ar
    10     7    11    1
    11    11    12    1
    12    12    13    1
    13    13    14    1
    14    14    15    1
    15    10     2   ar
    16     9     4   ar
    17    15     6    1
    18     1    16    1
    19     1    17    1
    20    13    18    1
@<TRIPOS>MOLECULE
*****
 18 20 0 0 0
SMALL
GASTEIGER

@<TRIPOS>ATOM
      1 N         143.3655  143.9365  171.2268 N.pl3   1  UNL1       -0.3375
      2 C         142.6896  142.9811  170.2885 C.ar    1  UNL1        0.1567
      3 N         141.2543  142.5496  170.3520 N.ar    1  UNL1       -0.2245
      4 C         141.0080  141.5913  169.2247 C.ar    1  UNL1        0.0889
      5 C         139.7812  140.8444  168.7923 C.ar    1  UNL1        0.0151
      6 C         139.8374  139.9365  167.5994 C.ar    1  UNL1       -0.0232
      7 C         141.1203  139.7757  166.8392 C.ar    1  UNL1       -0.0241
      8 C         142.3471  140.5226  167.2716 C.ar    1  UNL1        0.0035
      9 C         142.2910  141.4304  168.4644 C.ar    1  UNL1        0.0494
     10 S         143.3302  142.2894  169.1218 S.2     1  UNL1       -0.0520
     11 C         141.3919  138.9284  165.6315 C.3     1  UNL1        0.0431
     12 C         140.4474  138.0327  164.8859 C.3     1  UNL1        0.0733
     13 N         138.9983  137.7632  165.1638 N.3     1  UNL1       -0.2969
     14 C         138.1356  138.3227  166.2559 C.3     1  UNL1        0.0733
     15 C         138.5090  139.2899  167.3399 C.3     1  UNL1        0.0431
     16 H         142.8580  144.3414  171.9669 H       1  UNL1        0.1442
     17 H         144.3165  144.1585  171.1025 H       1  UNL1        0.1442
     18 H         138.9459  136.7523  165.2894 H       1  UNL1        0.1233
@<TRIPOS>BOND
     1     1     2    1
     2     2     3   ar
     3     3     4   ar
     4     4     5   ar
     5     5     6   ar
     6     6     7   ar
     7     7     8   ar
     8     8     9   ar
     9     9    10   ar
    10     7    11    1
    11    11    12    1
    12    12    13    1
    13    13    14    1
    14    14    15    1
    15    10     2   ar
    16     9     4   ar
    17    15     6    1
    18     1    16    1
    19     1    17    1
    20    13    18    1
@<TRIPOS>MOLECULE
*****
 18 20 0 0 0
SMALL
GASTEIGER

@<TRIPOS>ATOM
      1 N         140.3591  141.5216  171.3649 N.pl3   1  UNL1       -0.3375
      2 C         140.3810  140.8905  170.0043 C.ar    1  UNL1        0.1567
      3 N         139.1824  140.4502  169.2172 N.ar    1  UNL1       -0.2245
      4 C         139.6659  139.8765  167.9184 C.ar    1  UNL1        0.0889
      5 C         138.9361  139.2871  166.7479 C.ar    1  UNL1        0.0151
      6 C         139.7039  138.7834  165.5617 C.ar    1  UNL1       -0.0232
      7 C         141.2012  138.8692  165.5461 C.ar    1  UNL1       -0.0241
      8 C         141.9311  139.4586  166.7165 C.ar    1  UNL1        0.0035
      9 C         141.1634  139.9623  167.9027 C.ar    1  UNL1        0.0494
     10 S         141.6053  140.5890  169.1919 S.2     1  UNL1       -0.0520
     11 C         142.1521  138.4292  164.4725 C.3     1  UNL1        0.0431
     12 C         141.8401  137.7948  163.1495 C.3     1  UNL1        0.0733
     13 N         140.5005  137.4438  162.5733 N.3     1  UNL1       -0.2969
     14 C         139.1418  137.6403  163.1778 C.3     1  UNL1        0.0733
     15 C         138.7873  138.2365  164.5078 C.3     1  UNL1        0.0431
     16 H         139.5008  141.6800  171.8203 H       1  UNL1        0.1442
     17 H         141.2031  141.7775  171.8025 H       1  UNL1        0.1442
     18 H         140.5560  136.4420  162.3897 H       1  UNL1        0.1233
@<TRIPOS>BOND
     1     1     2    1
     2     2     3   ar
     3     3     4   ar
     4     4     5   ar
     5     5     6   ar
     6     6     7   ar
     7     7     8   ar
     8     8     9   ar
     9     9    10   ar
    10     7    11    1
    11    11    12    1
    12    12    13    1
    13    13    14    1
    14    14    15    1
    15    10     2   ar
    16     9     4   ar
    17    15     6    1
    18     1    16    1
    19     1    17    1
    20    13    18    1
@<TRIPOS>MOLECULE
*****
 18 20 0 0 0
SMALL
GASTEIGER

@<TRIPOS>ATOM
      1 N         138.9450  143.3591  171.5300 N.pl3   1  UNL1       -0.3375
      2 C         139.8081  142.7413  170.4701 C.ar    1  UNL1        0.1567
      3 N         140.4471  143.4639  169.3214 N.ar    1  UNL1       -0.2245
      4 C         141.2177  142.4617  168.5142 C.ar    1  UNL1        0.0889
      5 C         142.0466  142.5977  167.2714 C.ar    1  UNL1        0.0151
      6 C         142.7127  141.3916  166.6784 C.ar    1  UNL1       -0.0232
      7 C         142.5500  140.0496  167.3282 C.ar    1  UNL1       -0.0241
      8 C         141.7212  139.9134  168.5710 C.ar    1  UNL1        0.0035
      9 C         141.0550  141.1195  169.1640 C.ar    1  UNL1        0.0494
     10 S         140.1838  141.2924  170.3728 S.2     1  UNL1       -0.0520
     11 C         143.1234  138.7297  166.9047 C.3     1  UNL1        0.0431
     12 C         144.0011  138.4261  165.7267 C.3     1  UNL1        0.0733
     13 N         144.5221  139.3672  164.6815 N.3     1  UNL1       -0.2969
     14 C         144.2943  140.8445  164.5559 C.3     1  UNL1        0.0733
     15 C         143.4890  141.7454  165.4446 C.3     1  UNL1        0.0431
     16 H         138.7542  144.3247  171.5084 H       1  UNL1        0.1442
     17 H         138.5693  142.7989  172.2471 H       1  UNL1        0.1442
     18 H         144.1859  138.9809  163.7994 H       1  UNL1        0.1233
@<TRIPOS>BOND
     1     1     2    1
     2     2     3   ar
     3     3     4   ar
     4     4     5   ar
     5     5     6   ar
     6     6     7   ar
     7     7     8   ar
     8     8     9   ar
     9     9    10   ar
    10     7    11    1
    11    11    12    1
    12    12    13    1
    13    13    14    1
    14    14    15    1
    15    10     2   ar
    16     9     4   ar
    17    15     6    1
    18     1    16    1
    19     1    17    1
    20    13    18    1
@<TRIPOS>MOLECULE
*****
 18 20 0 0 0
SMALL
GASTEIGER

@<TRIPOS>ATOM
      1 N         143.7955  139.6156  171.4536 N.pl3   1  UNL1       -0.3375
      2 C         142.9100  140.0655  170.3295 C.ar    1  UNL1        0.1567
      3 N         141.9639  139.1996  169.5516 N.ar    1  UNL1       -0.2245
      4 C         141.2844  140.0593  168.5273 C.ar    1  UNL1        0.0889
      5 C         140.2545  139.7504  167.4814 C.ar    1  UNL1        0.0151
      6 C         139.7508  140.8387  166.5803 C.ar    1  UNL1       -0.0232
      7 C         140.2770  142.2358  166.7252 C.ar    1  UNL1       -0.0241
      8 C         141.3068  142.5448  167.7710 C.ar    1  UNL1        0.0035
      9 C         141.8106  141.4566  168.6722 C.ar    1  UNL1        0.0494
     10 S         142.8153  141.4603  169.7860 S.2     1  UNL1       -0.0520
     11 C         139.9128  143.4588  165.9366 C.3     1  UNL1        0.0431
     12 C         138.9324  143.5866  164.8085 C.3     1  UNL1        0.0733
     13 N         138.0742  142.5230  164.1903 N.3     1  UNL1       -0.2969
     14 C         137.9843  141.0689  164.5475 C.3     1  UNL1        0.0733
     15 C         138.7305  140.3193  165.6112 C.3     1  UNL1        0.0431
     16 H         143.7870  138.6737  171.7402 H       1  UNL1        0.1442
     17 H         144.3851  140.2621  171.9048 H       1  UNL1        0.1442
     18 H         138.3321  142.5282  163.2035 H       1  UNL1        0.1233
@<TRIPOS>BOND
     1     1     2    1
     2     2     3   ar
     3     3     4   ar
     4     4     5   ar
     5     5     6   ar
     6     6     7   ar
     7     7     8   ar
     8     8     9   ar
     9     9    10   ar
    10     7    11    1
    11    11    12    1
    12    12    13    1
    13    13    14    1
    14    14    15    1
    15    10     2   ar
    16     9     4   ar
    17    15     6    1
    18     1    16    1
    19     1    17    1
    20    13    18    1
@<TRIPOS>MOLECULE
*****
 18 20 0 0 0
SMALL
GASTEIGER

@<TRIPOS>ATOM
      1 N         137.9166  140.0011  162.9088 N.pl3   1  UNL1       -0.3375
      2 C         138.5367  140.3090  164.2395 C.ar    1  UNL1        0.1567
      3 N         139.4582  141.4541  164.5391 N.ar    1  UNL1       -0.2245
      4 C         139.8351  141.3786  165.9889 C.ar    1  UNL1        0.0889
      5 C         140.7163  142.2411  166.8431 C.ar    1  UNL1        0.0151
      6 C         140.9090  141.9119  168.2938 C.ar    1  UNL1       -0.0232
      7 C         140.2206  140.7203  168.8903 C.ar    1  UNL1       -0.0241
      8 C         139.3393  139.8578  168.0363 C.ar    1  UNL1        0.0035
      9 C         139.1466  140.1870  166.5855 C.ar    1  UNL1        0.0494
     10 S         138.3441  139.5259  165.5043 S.2     1  UNL1       -0.0520
     11 C         140.2760  140.2180  170.3027 C.3     1  UNL1        0.0431
     12 C         141.0338  140.7834  171.4673 C.3     1  UNL1        0.0733
     13 N         141.9231  141.9906  171.5071 N.3     1  UNL1       -0.2969
     14 C         142.2744  142.9307  170.3923 C.3     1  UNL1        0.0733
     15 C         141.8231  142.8957  168.9622 C.3     1  UNL1        0.0431
     16 H         138.1045  140.5773  162.1330 H       1  UNL1        0.1442
     17 H         137.3218  139.2227  162.8112 H       1  UNL1        0.1442
     18 H         142.8214  141.6355  171.8345 H       1  UNL1        0.1233
@<TRIPOS>BOND
     1     1     2    1
     2     2     3   ar
     3     3     4   ar
     4     4     5   ar
     5     5     6   ar
     6     6     7   ar
     7     7     8   ar
     8     8     9   ar
     9     9    10   ar
    10     7    11    1
    11    11    12    1
    12    12    13    1
    13    13    14    1
    14    14    15    1
    15    10     2   ar
    16     9     4   ar
    17    15     6    1
    18     1    16    1
    19     1    17    1
    20    13    18    1
@<TRIPOS>MOLECULE
*****
 18 20 0 0 0
SMALL
GASTEIGER

@<TRIPOS>ATOM
      1 N         139.2012  146.4385  161.2299 N.pl3   1  UNL1       -0.3375
      2 C         139.1893  145.3195  162.2287 C.ar    1  UNL1        0.1567
      3 N         138.3978  144.0498  162.1210 N.ar    1  UNL1       -0.2245
      4 C         138.6861  143.2194  163.3364 C.ar    1  UNL1        0.0889
      5 C         138.1908  141.8722  163.7720 C.ar    1  UNL1        0.0151
      6 C         138.6653  141.2813  165.0666 C.ar    1  UNL1       -0.0232
      7 C         139.6349  142.0377  165.9254 C.ar    1  UNL1       -0.0241
      8 C         140.1301  143.3849  165.4899 C.ar    1  UNL1        0.0035
      9 C         139.6557  143.9758  164.1953 C.ar    1  UNL1        0.0494
     10 S         139.9667  145.2737  163.5107 S.2     1  UNL1       -0.0520
     11 C         140.2302  141.6344  167.2420 C.3     1  UNL1        0.0431
     12 C         140.0027  140.3751  168.0247 C.3     1  UNL1        0.0733
     13 N         139.1239  139.2083  167.6842 N.3     1  UNL1       -0.2969
     14 C         138.2555  139.0123  166.4770 C.3     1  UNL1        0.0733
     15 C         138.0514  139.9349  165.3120 C.3     1  UNL1        0.0431
     16 H         138.6540  146.3758  160.4139 H       1  UNL1        0.1442
     17 H         139.7563  147.2356  161.3903 H       1  UNL1        0.1442
     18 H         138.4839  139.1313  168.4746 H       1  UNL1        0.1233
@<TRIPOS>BOND
     1     1     2    1
     2     2     3   ar
     3     3     4   ar
     4     4     5   ar
     5     5     6   ar
     6     6     7   ar
     7     7     8   ar
     8     8     9   ar
     9     9    10   ar
    10     7    11    1
    11    11    12    1
    12    12    13    1
    13    13    14    1
    14    14    15    1
    15    10     2   ar
    16     9     4   ar
    17    15     6    1
    18     1    16    1
    19     1    17    1
    20    13    18    1
@<TRIPOS>MOLECULE
*****
 18 20 0 0 0
SMALL
GASTEIGER

@<TRIPOS>ATOM
      1 N         140.7854  139.5216  170.2204 N.pl3   1  UNL1       -0.3375
      2 C         141.1033  140.3909  169.0401 C.ar    1  UNL1        0.1567
      3 N         140.1259  141.2374  168.2797 N.ar    1  UNL1       -0.2245
      4 C         140.8731  141.9360  167.1826 C.ar    1  UNL1        0.0889
      5 C         140.4289  142.8962  166.1193 C.ar    1  UNL1        0.0151
      6 C         141.4239  143.4418  165.1382 C.ar    1  UNL1       -0.0232
      7 C         142.8630  143.0271  165.2206 C.ar    1  UNL1       -0.0241
      8 C         143.3073  142.0669  166.2839 C.ar    1  UNL1        0.0035
      9 C         142.3123  141.5213  167.2649 C.ar    1  UNL1        0.0494
     10 S         142.4546  140.5664  168.4129 S.2     1  UNL1       -0.0520
     11 C         144.0090  143.4482  164.3491 C.3     1  UNL1        0.0431
     12 C         143.9987  144.3881  163.1800 C.3     1  UNL1        0.0733
     13 N         142.8401  145.1388  162.5938 N.3     1  UNL1       -0.2969
     14 C         141.4054  145.1352  163.0317 C.3     1  UNL1        0.0733
     15 C         140.7752  144.3800  164.1641 C.3     1  UNL1        0.0431
     16 H         139.8630  139.4720  170.5610 H       1  UNL1        0.1442
     17 H         141.4991  139.0006  170.6546 H       1  UNL1        0.1442
     18 H         142.8103  144.8416  161.6185 H       1  UNL1        0.1233
@<TRIPOS>BOND
     1     1     2    1
     2     2     3   ar
     3     3     4   ar
     4     4     5   ar
     5     5     6   ar
     6     6     7   ar
     7     7     8   ar
     8     8     9   ar
     9     9    10   ar
    10     7    11    1
    11    11    12    1
    12    12    13    1
    13    13    14    1
    14    14    15    1
    15    10     2   ar
    16     9     4   ar
    17    15     6    1
    18     1    16    1
    19     1    17    1
    20    13    18    1
@<TRIPOS>MOLECULE
*****
 18 20 0 0 0
SMALL
GASTEIGER

@<TRIPOS>ATOM
      1 N         140.9586  139.4722  170.2151 N.pl3   1  UNL1       -0.3375
      2 C         141.2422  140.3482  169.0309 C.ar    1  UNL1        0.1567
      3 N         142.5771  140.5369  168.3733 N.ar    1  UNL1       -0.2245
      4 C         142.4005  141.4946  167.2325 C.ar    1  UNL1        0.0889
      5 C         143.3682  142.0516  166.2307 C.ar    1  UNL1        0.0151
      6 C         142.8916  143.0118  165.1814 C.ar    1  UNL1       -0.0232
      7 C         141.4477  143.4149  165.1338 C.ar    1  UNL1       -0.0241
      8 C         140.4801  142.8579  166.1355 C.ar    1  UNL1        0.0035
      9 C         140.9565  141.8977  167.1848 C.ar    1  UNL1        0.0494
     10 S         140.2406  141.1892  168.2964 S.2     1  UNL1       -0.0520
     11 C         140.7690  144.3511  164.1783 C.3     1  UNL1        0.0431
     12 C         141.3669  145.1154  163.0343 C.3     1  UNL1        0.0733
     13 N         142.7908  145.1323  162.5635 N.3     1  UNL1       -0.2969
     14 C         143.9689  144.3890  163.1201 C.3     1  UNL1        0.0733
     15 C         144.0137  143.4453  164.2852 C.3     1  UNL1        0.0431
     16 H         141.6863  138.9556  170.6308 H       1  UNL1        0.1442
     17 H         140.0447  139.4139  170.5766 H       1  UNL1        0.1442
     18 H         143.0634  146.1141  162.6091 H       1  UNL1        0.1233
@<TRIPOS>BOND
     1     1     2    1
     2     2     3   ar
     3     3     4   ar
     4     4     5   ar
     5     5     6   ar
     6     6     7   ar
     7     7     8   ar
     8     8     9   ar
     9     9    10   ar
    10     7    11    1
    11    11    12    1
    12    12    13    1
    13    13    14    1
    14    14    15    1
    15    10     2   ar
    16     9     4   ar
    17    15     6    1
    18     1    16    1
    19     1    17    1
    20    13    18    1
