@<TRIPOS>MOLECULE
*****
 33 35 0 0 0
SMALL
GASTEIGER

@<TRIPOS>ATOM
      1 C         139.7099  140.7911  165.9799 C.ar    1  UNL1        0.1079
      2 N         140.6996  141.7622  166.5520 N.ar    1  UNL1       -0.1682
      3 N         140.8670  141.4491  168.0094 N.ar    1  UNL1       -0.2417
      4 C         139.9808  140.2843  168.3380 C.ar    1  UNL1        0.1279
      5 N         139.8353  139.6394  169.6844 N.pl3   1  UNL1       -0.3427
      6 C         139.2656  139.8776  167.0837 C.ar    1  UNL1        0.1031
      7 H         140.3501  139.9798  170.4515 H       1  UNL1        0.1437
      8 H         139.2250  138.8758  169.8011 H       1  UNL1        0.1437
      9 C         138.6923  139.9098  159.2392 C.ar    1  UNL1        0.1386
     10 C         139.9946  139.2743  159.6263 C.ar    1  UNL1        0.0369
     11 C         140.4586  139.3234  161.0519 C.ar    1  UNL1        0.0031
     12 C         139.6203  140.0081  162.0903 C.ar    1  UNL1        0.0002
     13 C         140.0843  140.0572  163.5159 C.ar    1  UNL1        0.0016
     14 C         139.2459  140.7419  164.5543 C.ar    1  UNL1        0.0196
     15 C         137.9435  141.3775  164.1672 C.ar    1  UNL1        0.0016
     16 C         137.4795  141.3283  162.7416 C.ar    1  UNL1        0.0001
     17 C         138.3179  140.6436  161.7032 C.ar    1  UNL1        0.0030
     18 C         137.8539  140.5944  160.2776 C.ar    1  UNL1        0.0369
     19 O         138.2283  139.8606  157.8136 O.3     1  UNL1       -0.4755
     20 C         137.9525  142.1188  156.5588 C.3     1  UNL1        0.0512
     21 C         137.3467  140.9476  157.2739 C.3     1  UNL1        0.2055
     22 C         138.2795  138.7547  166.9557 C.2     1  UNL1        0.2470
     23 N         138.2983  137.8747  165.7411 N.am    1  UNL1       -0.3252
     24 O         137.2744  138.5117  168.0424 O.2     1  UNL1       -0.2702
     25 H         138.9579  138.0341  165.0279 H       1  UNL1        0.1453
     26 H         137.6510  137.1377  165.6572 H       1  UNL1        0.1453
     27 C         141.7633  142.1734  168.9696 C.3     1  UNL1        0.0903
     28 C         142.8656  141.1996  168.6754 C.3     1  UNL1        0.0246
     29 C         140.6609  143.1473  169.2637 C.3     1  UNL1        0.0246
     30 C         142.6595  142.8978  169.9298 C.3     1  UNL1        0.0543
     31 C         144.1246  142.5795  169.9741 C.3     1  UNL1        0.1391
     32 O         145.0821  143.5410  170.6134 O.3     1  UNL1       -0.3819
     33 H         145.1098  144.3614  170.0965 H       1  UNL1        0.2104
@<TRIPOS>BOND
     1    20    21    1
     2    21    19    1
     3    19     9    1
     4     9    10   ar
     5    10    11   ar
     6    11    12   ar
     7    12    13   ar
     8    13    14   ar
     9    14     1    1
    10     1     2   ar
    11     2     3   ar
    12     3    27    1
    13    27    28    1
    14    27    29    1
    15    27    30    1
    16    30    31    1
    17    31    32    1
    18     3     4   ar
    19     4     5    1
    20     4     6   ar
    21     6    22    1
    22    22    23   am
    23    22    24    2
    24    14    15   ar
    25    15    16   ar
    26    16    17   ar
    27    17    18   ar
    28    18     9   ar
    29    17    12   ar
    30     6     1   ar
    31    32    33    1
    32     5     7    1
    33     5     8    1
    34    23    25    1
    35    23    26    1
@<TRIPOS>MOLECULE
*****
 33 35 0 0 0
SMALL
GASTEIGER

@<TRIPOS>ATOM
      1 C         140.2941  142.6742  165.1917 C.ar    1  UNL1        0.1079
      2 N         141.1477  142.9942  166.3828 N.ar    1  UNL1       -0.1682
      3 N         140.8384  141.9940  167.4570 N.ar    1  UNL1       -0.2417
      4 C         139.7936  141.0557  166.9297 C.ar    1  UNL1        0.1279
      5 N         139.1910  139.9000  167.6721 N.pl3   1  UNL1       -0.3427
      6 C         139.4571  141.4760  165.5296 C.ar    1  UNL1        0.1031
      7 H         139.4784  139.7026  168.5928 H       1  UNL1        0.1437
      8 H         138.5080  139.3388  167.2387 H       1  UNL1        0.1437
      9 C         141.1422  145.2374  158.8702 C.ar    1  UNL1        0.1386
     10 C         142.0616  144.0663  159.0526 C.ar    1  UNL1        0.0369
     11 C         142.0758  143.3194  160.3534 C.ar    1  UNL1        0.0031
     12 C         141.1707  143.7437  161.4718 C.ar    1  UNL1        0.0002
     13 C         141.1849  142.9968  162.7725 C.ar    1  UNL1        0.0016
     14 C         140.2798  143.4210  163.8909 C.ar    1  UNL1        0.0196
     15 C         139.3604  144.5922  163.7085 C.ar    1  UNL1        0.0016
     16 C         139.3462  145.3390  162.4077 C.ar    1  UNL1        0.0001
     17 C         140.2514  144.9147  161.2893 C.ar    1  UNL1        0.0030
     18 C         140.2371  145.6616  159.9886 C.ar    1  UNL1        0.0369
     19 O         141.1280  145.9842  157.5695 O.3     1  UNL1       -0.4755
     20 C         139.1974  147.1807  156.3081 C.3     1  UNL1        0.0512
     21 C         139.9208  145.9208  156.6814 C.3     1  UNL1        0.2055
     22 C         138.4591  140.8145  164.6262 C.2     1  UNL1        0.2470
     23 N         137.3541  141.6210  164.0110 N.am    1  UNL1       -0.3252
     24 O         138.5659  139.3463  164.3380 O.2     1  UNL1       -0.2702
     25 H         137.2839  142.5847  164.2001 H       1  UNL1        0.1453
     26 H         136.6991  141.1868  163.4180 H       1  UNL1        0.1453
     27 C         141.4640  141.9412  168.8192 C.3     1  UNL1        0.0903
     28 C         140.4390  142.9113  169.3276 C.3     1  UNL1        0.0246
     29 C         142.4890  140.9711  168.3109 C.3     1  UNL1        0.0246
     30 C         142.0896  141.8884  170.1815 C.3     1  UNL1        0.0543
     31 C         141.8943  140.6813  171.0503 C.3     1  UNL1        0.1391
     32 O         140.7590  140.6378  172.0296 O.3     1  UNL1       -0.3819
     33 H         140.8972  141.3103  172.7149 H       1  UNL1        0.2104
@<TRIPOS>BOND
     1    20    21    1
     2    21    19    1
     3    19     9    1
     4     9    10   ar
     5    10    11   ar
     6    11    12   ar
     7    12    13   ar
     8    13    14   ar
     9    14     1    1
    10     1     2   ar
    11     2     3   ar
    12     3    27    1
    13    27    28    1
    14    27    29    1
    15    27    30    1
    16    30    31    1
    17    31    32    1
    18     3     4   ar
    19     4     5    1
    20     4     6   ar
    21     6    22    1
    22    22    23   am
    23    22    24    2
    24    14    15   ar
    25    15    16   ar
    26    16    17   ar
    27    17    18   ar
    28    18     9   ar
    29    17    12   ar
    30     6     1   ar
    31    32    33    1
    32     5     7    1
    33     5     8    1
    34    23    25    1
    35    23    26    1
@<TRIPOS>MOLECULE
*****
 33 35 0 0 0
SMALL
GASTEIGER

@<TRIPOS>ATOM
      1 C         141.2138  142.9792  165.2732 C.ar    1  UNL1        0.1079
      2 N         140.1546  142.5271  166.2343 N.ar    1  UNL1       -0.1682
      3 N         140.8358  142.0319  167.4756 N.ar    1  UNL1       -0.2417
      4 C         142.3160  142.1779  167.2817 C.ar    1  UNL1        0.1279
      5 N         143.3765  141.8041  168.2745 N.pl3   1  UNL1       -0.3427
      6 C         142.5497  142.7634  165.9205 C.ar    1  UNL1        0.1031
      7 H         143.1224  141.4245  169.1466 H       1  UNL1        0.1437
      8 H         144.3265  141.9384  168.0541 H       1  UNL1        0.1437
      9 C         140.0788  144.3335  158.6304 C.ar    1  UNL1        0.1386
     10 C         140.1202  142.8472  158.8284 C.ar    1  UNL1        0.0369
     11 C         140.3555  142.2791  160.1965 C.ar    1  UNL1        0.0031
     12 C         140.5494  143.1973  161.3667 C.ar    1  UNL1        0.0002
     13 C         140.7847  142.6291  162.7349 C.ar    1  UNL1        0.0016
     14 C         140.9786  143.5473  163.9051 C.ar    1  UNL1        0.0196
     15 C         140.9372  145.0336  163.7071 C.ar    1  UNL1        0.0016
     16 C         140.7019  145.6018  162.3389 C.ar    1  UNL1        0.0001
     17 C         140.5080  144.6835  161.1687 C.ar    1  UNL1        0.0030
     18 C         140.2727  145.2517  159.8006 C.ar    1  UNL1        0.0369
     19 O         139.8435  144.9016  157.2622 O.3     1  UNL1       -0.4755
     20 C         139.1526  147.1492  156.1573 C.3     1  UNL1        0.0512
     21 C         140.1074  146.3543  156.9978 C.3     1  UNL1        0.2055
     22 C         143.8847  143.0778  165.3133 C.2     1  UNL1        0.2470
     23 N         144.2201  142.5784  163.9392 N.am    1  UNL1       -0.3252
     24 O         144.8846  143.8916  166.0803 O.2     1  UNL1       -0.2702
     25 H         143.5640  142.0443  163.4358 H       1  UNL1        0.1453
     26 H         145.0964  142.7849  163.5408 H       1  UNL1        0.1453
     27 C         140.1562  141.4865  168.6964 C.3     1  UNL1        0.0903
     28 C         140.2782  142.8249  169.3624 C.3     1  UNL1        0.0246
     29 C         140.0342  140.1479  168.0304 C.3     1  UNL1        0.0246
     30 C         139.4765  140.9409  169.9173 C.3     1  UNL1        0.0543
     31 C         140.2436  140.0902  170.8857 C.3     1  UNL1        0.1391
     32 O         139.5520  138.9801  171.6200 O.3     1  UNL1       -0.3819
     33 H         138.8895  139.3540  172.2218 H       1  UNL1        0.2104
@<TRIPOS>BOND
     1    20    21    1
     2    21    19    1
     3    19     9    1
     4     9    10   ar
     5    10    11   ar
     6    11    12   ar
     7    12    13   ar
     8    13    14   ar
     9    14     1    1
    10     1     2   ar
    11     2     3   ar
    12     3    27    1
    13    27    28    1
    14    27    29    1
    15    27    30    1
    16    30    31    1
    17    31    32    1
    18     3     4   ar
    19     4     5    1
    20     4     6   ar
    21     6    22    1
    22    22    23   am
    23    22    24    2
    24    14    15   ar
    25    15    16   ar
    26    16    17   ar
    27    17    18   ar
    28    18     9   ar
    29    17    12   ar
    30     6     1   ar
    31    32    33    1
    32     5     7    1
    33     5     8    1
    34    23    25    1
    35    23    26    1
@<TRIPOS>MOLECULE
*****
 33 35 0 0 0
SMALL
GASTEIGER

@<TRIPOS>ATOM
      1 C         140.6196  140.2573  165.8064 C.ar    1  UNL1        0.1079
      2 N         141.3823  141.2443  166.6394 N.ar    1  UNL1       -0.1682
      3 N         140.8117  141.2191  168.0265 N.ar    1  UNL1       -0.2417
      4 C         139.6963  140.2165  168.0506 C.ar    1  UNL1        0.1279
      5 N         138.8485  139.8692  169.2383 N.pl3   1  UNL1       -0.3427
      6 C         139.5775  139.6220  166.6785 C.ar    1  UNL1        0.1031
      7 H         139.0038  140.3163  170.1016 H       1  UNL1        0.1437
      8 H         138.1367  139.1942  169.1546 H       1  UNL1        0.1437
      9 C         142.7574  138.2423  159.5919 C.ar    1  UNL1        0.1386
     10 C         143.7075  137.7233  160.6302 C.ar    1  UNL1        0.0369
     11 C         143.4700  138.0226  162.0807 C.ar    1  UNL1        0.0031
     12 C         142.2823  138.8407  162.4930 C.ar    1  UNL1        0.0002
     13 C         142.0448  139.1400  163.9435 C.ar    1  UNL1        0.0016
     14 C         140.8571  139.9581  164.3558 C.ar    1  UNL1        0.0196
     15 C         139.9069  140.4771  163.3176 C.ar    1  UNL1        0.0016
     16 C         140.1445  140.1779  161.8671 C.ar    1  UNL1        0.0001
     17 C         141.3322  139.3597  161.4548 C.ar    1  UNL1        0.0030
     18 C         141.5697  139.0604  160.0042 C.ar    1  UNL1        0.0369
     19 O         142.9949  137.9431  158.1414 O.3     1  UNL1       -0.4755
     20 C         141.6916  137.8188  155.8974 C.3     1  UNL1        0.0512
     21 C         142.1503  138.6021  157.0916 C.3     1  UNL1        0.2055
     22 C         138.5901  138.5761  166.2533 C.2     1  UNL1        0.2470
     23 N         138.9604  137.5821  165.1927 N.am    1  UNL1       -0.3252
     24 O         137.2323  138.5239  166.8887 O.2     1  UNL1       -0.2702
     25 H         139.8515  137.6162  164.7756 H       1  UNL1        0.1453
     26 H         138.3123  136.8956  164.9136 H       1  UNL1        0.1453
     27 C         141.2751  142.0505  169.1857 C.3     1  UNL1        0.0903
     28 C         142.2050  140.9500  169.6033 C.3     1  UNL1        0.0246
     29 C         140.3453  143.1510  168.7682 C.3     1  UNL1        0.0246
     30 C         141.7385  142.8819  170.3450 C.3     1  UNL1        0.0543
     31 C         143.2048  143.1046  170.5697 C.3     1  UNL1        0.1391
     32 O         143.6690  144.2695  171.3927 O.3     1  UNL1       -0.3819
     33 H         143.4473  145.0964  170.9367 H       1  UNL1        0.2104
@<TRIPOS>BOND
     1    20    21    1
     2    21    19    1
     3    19     9    1
     4     9    10   ar
     5    10    11   ar
     6    11    12   ar
     7    12    13   ar
     8    13    14   ar
     9    14     1    1
    10     1     2   ar
    11     2     3   ar
    12     3    27    1
    13    27    28    1
    14    27    29    1
    15    27    30    1
    16    30    31    1
    17    31    32    1
    18     3     4   ar
    19     4     5    1
    20     4     6   ar
    21     6    22    1
    22    22    23   am
    23    22    24    2
    24    14    15   ar
    25    15    16   ar
    26    16    17   ar
    27    17    18   ar
    28    18     9   ar
    29    17    12   ar
    30     6     1   ar
    31    32    33    1
    32     5     7    1
    33     5     8    1
    34    23    25    1
    35    23    26    1
@<TRIPOS>MOLECULE
*****
 33 35 0 0 0
SMALL
GASTEIGER

@<TRIPOS>ATOM
      1 C         140.5173  139.9582  165.9143 C.ar    1  UNL1        0.1079
      2 N         141.3061  140.9773  166.6819 N.ar    1  UNL1       -0.1682
      3 N         140.7142  141.0826  168.0562 N.ar    1  UNL1       -0.2417
      4 C         139.5596  140.1286  168.1380 C.ar    1  UNL1        0.1279
      5 N         138.6809  139.9081  169.3335 N.pl3   1  UNL1       -0.3427
      6 C         139.4378  139.4336  166.8142 C.ar    1  UNL1        0.1031
      7 H         138.8410  140.4150  170.1622 H       1  UNL1        0.1437
      8 H         137.9442  139.2565  169.2895 H       1  UNL1        0.1437
      9 C         140.5941  138.7495  159.1480 C.ar    1  UNL1        0.1386
     10 C         139.4351  139.6442  159.4738 C.ar    1  UNL1        0.0369
     11 C         139.1880  140.0649  160.8922 C.ar    1  UNL1        0.0031
     12 C         140.0998  139.5909  161.9848 C.ar    1  UNL1        0.0002
     13 C         139.8526  140.0116  163.4033 C.ar    1  UNL1        0.0016
     14 C         140.7644  139.5375  164.4959 C.ar    1  UNL1        0.0196
     15 C         141.9235  138.6428  164.1701 C.ar    1  UNL1        0.0016
     16 C         142.1707  138.2221  162.7517 C.ar    1  UNL1        0.0001
     17 C         141.2588  138.6962  161.6590 C.ar    1  UNL1        0.0030
     18 C         141.5059  138.2755  160.2406 C.ar    1  UNL1        0.0369
     19 O         140.8413  138.3289  157.7296 O.3     1  UNL1       -0.4755
     20 C         139.3510  137.2145  155.9165 C.3     1  UNL1        0.0512
     21 C         139.7390  138.4226  156.7166 C.3     1  UNL1        0.2055
     22 C         138.4161  138.3963  166.4536 C.2     1  UNL1        0.2470
     23 N         138.7158  137.3883  165.3841 N.am    1  UNL1       -0.3252
     24 O         137.0945  138.3670  167.1627 O.2     1  UNL1       -0.2702
     25 H         139.5832  137.4074  164.9187 H       1  UNL1        0.1453
     26 H         138.0452  136.7075  165.1475 H       1  UNL1        0.1453
     27 C         141.1929  141.9836  169.1557 C.3     1  UNL1        0.0903
     28 C         142.0756  140.8858  169.6711 C.3     1  UNL1        0.0246
     29 C         140.3101  143.0815  168.6402 C.3     1  UNL1        0.0246
     30 C         141.6715  142.8847  170.2552 C.3     1  UNL1        0.0543
     31 C         143.1412  143.0387  170.5124 C.3     1  UNL1        0.1391
     32 O         143.6427  144.1914  171.3308 O.3     1  UNL1       -0.3819
     33 H         143.4728  145.0214  170.8584 H       1  UNL1        0.2104
@<TRIPOS>BOND
     1    20    21    1
     2    21    19    1
     3    19     9    1
     4     9    10   ar
     5    10    11   ar
     6    11    12   ar
     7    12    13   ar
     8    13    14   ar
     9    14     1    1
    10     1     2   ar
    11     2     3   ar
    12     3    27    1
    13    27    28    1
    14    27    29    1
    15    27    30    1
    16    30    31    1
    17    31    32    1
    18     3     4   ar
    19     4     5    1
    20     4     6   ar
    21     6    22    1
    22    22    23   am
    23    22    24    2
    24    14    15   ar
    25    15    16   ar
    26    16    17   ar
    27    17    18   ar
    28    18     9   ar
    29    17    12   ar
    30     6     1   ar
    31    32    33    1
    32     5     7    1
    33     5     8    1
    34    23    25    1
    35    23    26    1
@<TRIPOS>MOLECULE
*****
 33 35 0 0 0
SMALL
GASTEIGER

@<TRIPOS>ATOM
      1 C         140.5176  141.3583  165.5058 C.ar    1  UNL1        0.1079
      2 N         141.1911  141.5630  166.8303 N.ar    1  UNL1       -0.1682
      3 N         140.4707  140.7319  167.8501 N.ar    1  UNL1       -0.2417
      4 C         139.3518  140.0134  167.1559 C.ar    1  UNL1        0.1279
      5 N         138.3754  139.0729  167.7978 N.pl3   1  UNL1       -0.3427
      6 C         139.3807  140.4005  165.7070 C.ar    1  UNL1        0.1031
      7 H         138.4378  138.8807  168.7614 H       1  UNL1        0.1437
      8 H         137.6721  138.6479  167.2556 H       1  UNL1        0.1437
      9 C         141.3688  145.1409  159.8297 C.ar    1  UNL1        0.1386
     10 C         140.2500  145.7210  160.6432 C.ar    1  UNL1        0.0369
     11 C         139.8560  145.0805  161.9410 C.ar    1  UNL1        0.0031
     12 C         140.5808  143.8599  162.4255 C.ar    1  UNL1        0.0002
     13 C         140.1868  143.2194  163.7234 C.ar    1  UNL1        0.0016
     14 C         140.9116  141.9988  164.2079 C.ar    1  UNL1        0.0196
     15 C         142.0305  141.4186  163.3944 C.ar    1  UNL1        0.0016
     16 C         142.4245  142.0591  162.0965 C.ar    1  UNL1        0.0001
     17 C         141.6996  143.2798  161.6121 C.ar    1  UNL1        0.0030
     18 C         142.0936  143.9203  160.3142 C.ar    1  UNL1        0.0369
     19 O         141.7628  145.7814  158.5318 O.3     1  UNL1       -0.4755
     20 C         139.9018  144.7472  157.0430 C.3     1  UNL1        0.0512
     21 C         140.7574  145.9178  157.4271 C.3     1  UNL1        0.2055
     22 C         138.4384  139.9151  164.6457 C.2     1  UNL1        0.2470
     23 N         137.4164  140.8478  164.0665 N.am    1  UNL1       -0.3252
     24 O         138.5181  138.4969  164.1635 O.2     1  UNL1       -0.2702
     25 H         137.3640  141.7786  164.3829 H       1  UNL1        0.1453
     26 H         136.7979  140.5292  163.3699 H       1  UNL1        0.1453
     27 C         140.8095  140.6360  169.3082 C.3     1  UNL1        0.0903
     28 C         139.7621  141.6636  169.6192 C.3     1  UNL1        0.0246
     29 C         141.8570  139.6082  168.9971 C.3     1  UNL1        0.0246
     30 C         141.1484  140.5400  170.7662 C.3     1  UNL1        0.0543
     31 C         141.7487  141.7174  171.4758 C.3     1  UNL1        0.1391
     32 O         142.9511  142.4061  170.9013 O.3     1  UNL1       -0.3819
     33 H         143.7095  141.8016  170.9197 H       1  UNL1        0.2104
@<TRIPOS>BOND
     1    20    21    1
     2    21    19    1
     3    19     9    1
     4     9    10   ar
     5    10    11   ar
     6    11    12   ar
     7    12    13   ar
     8    13    14   ar
     9    14     1    1
    10     1     2   ar
    11     2     3   ar
    12     3    27    1
    13    27    28    1
    14    27    29    1
    15    27    30    1
    16    30    31    1
    17    31    32    1
    18     3     4   ar
    19     4     5    1
    20     4     6   ar
    21     6    22    1
    22    22    23   am
    23    22    24    2
    24    14    15   ar
    25    15    16   ar
    26    16    17   ar
    27    17    18   ar
    28    18     9   ar
    29    17    12   ar
    30     6     1   ar
    31    32    33    1
    32     5     7    1
    33     5     8    1
    34    23    25    1
    35    23    26    1
@<TRIPOS>MOLECULE
*****
 33 35 0 0 0
SMALL
GASTEIGER

@<TRIPOS>ATOM
      1 C         141.8472  142.7938  161.9270 C.ar    1  UNL1        0.1079
      2 N         142.5127  141.9949  160.8458 N.ar    1  UNL1       -0.1682
      3 N         142.5084  142.8181  159.5918 N.ar    1  UNL1       -0.2417
      4 C         141.8402  144.1257  159.8980 C.ar    1  UNL1        0.1279
      5 N         141.6194  145.2508  158.9309 N.pl3   1  UNL1       -0.3427
      6 C         141.4315  144.1107  161.3412 C.ar    1  UNL1        0.1031
      7 H         141.9252  145.1659  157.9989 H       1  UNL1        0.1437
      8 H         141.1687  146.0740  159.2280 H       1  UNL1        0.1437
      9 C         139.8386  140.1424  167.9424 C.ar    1  UNL1        0.1386
     10 C         138.8927  139.6943  166.8680 C.ar    1  UNL1        0.0369
     11 C         139.1052  140.1349  165.4500 C.ar    1  UNL1        0.0031
     12 C         140.2637  141.0237  165.1065 C.ar    1  UNL1        0.0002
     13 C         140.4762  141.4643  163.6885 C.ar    1  UNL1        0.0016
     14 C         141.6347  142.3531  163.3450 C.ar    1  UNL1        0.0196
     15 C         142.5806  142.8012  164.4194 C.ar    1  UNL1        0.0016
     16 C         142.3681  142.3606  165.8374 C.ar    1  UNL1        0.0001
     17 C         141.2096  141.4718  166.1809 C.ar    1  UNL1        0.0030
     18 C         140.9970  141.0311  167.5989 C.ar    1  UNL1        0.0369
     19 O         139.6260  139.7017  169.3604 O.3     1  UNL1       -0.4755
     20 C         140.7798  141.2120  171.1317 C.3     1  UNL1        0.0512
     21 C         140.7037  139.9152  170.3817 C.3     1  UNL1        0.2055
     22 C         140.7304  145.2181  162.0706 C.2     1  UNL1        0.2470
     23 N         141.4265  145.9400  163.1861 N.am    1  UNL1       -0.3252
     24 O         139.3331  145.6036  161.6845 O.2     1  UNL1       -0.2702
     25 H         142.3435  145.6871  163.4395 H       1  UNL1        0.1453
     26 H         140.9662  146.6669  163.6648 H       1  UNL1        0.1453
     27 C         143.0730  142.4061  158.2647 C.3     1  UNL1        0.0903
     28 C         144.4243  142.9032  158.6852 C.3     1  UNL1        0.0246
     29 C         141.7217  141.9089  157.8441 C.3     1  UNL1        0.0246
     30 C         143.6376  141.9940  156.9375 C.3     1  UNL1        0.0543
     31 C         144.0272  140.5652  156.6992 C.3     1  UNL1        0.1391
     32 O         145.4508  140.1338  156.8921 O.3     1  UNL1       -0.3819
     33 H         146.0126  140.5676  156.2310 H       1  UNL1        0.2104
@<TRIPOS>BOND
     1    20    21    1
     2    21    19    1
     3    19     9    1
     4     9    10   ar
     5    10    11   ar
     6    11    12   ar
     7    12    13   ar
     8    13    14   ar
     9    14     1    1
    10     1     2   ar
    11     2     3   ar
    12     3    27    1
    13    27    28    1
    14    27    29    1
    15    27    30    1
    16    30    31    1
    17    31    32    1
    18     3     4   ar
    19     4     5    1
    20     4     6   ar
    21     6    22    1
    22    22    23   am
    23    22    24    2
    24    14    15   ar
    25    15    16   ar
    26    16    17   ar
    27    17    18   ar
    28    18     9   ar
    29    17    12   ar
    30     6     1   ar
    31    32    33    1
    32     5     7    1
    33     5     8    1
    34    23    25    1
    35    23    26    1
@<TRIPOS>MOLECULE
*****
 33 35 0 0 0
SMALL
GASTEIGER

@<TRIPOS>ATOM
      1 C         142.5342  140.0174  164.4768 C.ar    1  UNL1        0.1079
      2 N         141.6805  139.4898  165.5916 N.ar    1  UNL1       -0.1682
      3 N         141.9080  140.3522  166.7977 N.ar    1  UNL1       -0.2417
      4 C         142.9023  141.4129  166.4282 C.ar    1  UNL1        0.1279
      5 N         143.4189  142.4911  167.3340 N.pl3   1  UNL1       -0.3427
      6 C         143.2893  141.2060  164.9938 C.ar    1  UNL1        0.1031
      7 H         143.1032  142.5451  168.2649 H       1  UNL1        0.1437
      8 H         144.0736  143.1448  166.9975 H       1  UNL1        0.1437
      9 C         141.7374  137.9746  157.9620 C.ar    1  UNL1        0.1386
     10 C         140.5215  138.7426  158.3880 C.ar    1  UNL1        0.0369
     11 C         140.4376  139.3048  159.7761 C.ar    1  UNL1        0.0031
     12 C         141.5697  139.0989  160.7383 C.ar    1  UNL1        0.0002
     13 C         141.4859  139.6611  162.1264 C.ar    1  UNL1        0.0016
     14 C         142.6180  139.4552  163.0886 C.ar    1  UNL1        0.0196
     15 C         143.8340  138.6871  162.6627 C.ar    1  UNL1        0.0016
     16 C         143.9179  138.1249  161.2746 C.ar    1  UNL1        0.0001
     17 C         142.7857  138.3308  160.3124 C.ar    1  UNL1        0.0030
     18 C         142.8695  137.7687  158.9242 C.ar    1  UNL1        0.0369
     19 O         141.8212  137.4124  156.5739 O.3     1  UNL1       -0.4755
     20 C         143.9184  136.1540  155.6975 C.3     1  UNL1        0.0512
     21 C         143.1287  137.4214  155.8388 C.3     1  UNL1        0.2055
     22 C         144.2608  142.0409  164.2134 C.2     1  UNL1        0.2470
     23 N         143.8110  143.3288  163.5897 N.am    1  UNL1       -0.3252
     24 O         145.6822  141.5880  164.0567 O.2     1  UNL1       -0.2702
     25 H         142.8781  143.6261  163.6925 H       1  UNL1        0.1453
     26 H         144.4487  143.8768  163.0775 H       1  UNL1        0.1453
     27 C         141.2559  140.1837  168.1378 C.3     1  UNL1        0.0903
     28 C         142.4477  139.4116  168.6208 C.3     1  UNL1        0.0246
     29 C         140.0639  140.9558  167.6549 C.3     1  UNL1        0.0246
     30 C         140.6036  140.0152  169.4780 C.3     1  UNL1        0.0543
     31 C         139.1848  140.4572  169.6826 C.3     1  UNL1        0.1391
     32 O         138.3068  139.7322  170.6590 O.3     1  UNL1       -0.3819
     33 H         138.1513  138.8279  170.3445 H       1  UNL1        0.2104
@<TRIPOS>BOND
     1    20    21    1
     2    21    19    1
     3    19     9    1
     4     9    10   ar
     5    10    11   ar
     6    11    12   ar
     7    12    13   ar
     8    13    14   ar
     9    14     1    1
    10     1     2   ar
    11     2     3   ar
    12     3    27    1
    13    27    28    1
    14    27    29    1
    15    27    30    1
    16    30    31    1
    17    31    32    1
    18     3     4   ar
    19     4     5    1
    20     4     6   ar
    21     6    22    1
    22    22    23   am
    23    22    24    2
    24    14    15   ar
    25    15    16   ar
    26    16    17   ar
    27    17    18   ar
    28    18     9   ar
    29    17    12   ar
    30     6     1   ar
    31    32    33    1
    32     5     7    1
    33     5     8    1
    34    23    25    1
    35    23    26    1
@<TRIPOS>MOLECULE
*****
 33 35 0 0 0
SMALL
GASTEIGER

@<TRIPOS>ATOM
      1 C         140.3741  141.6081  163.9491 C.ar    1  UNL1        0.1079
      2 N         141.4561  141.4299  164.9725 N.ar    1  UNL1       -0.1682
      3 N         141.0884  140.2605  165.8370 N.ar    1  UNL1       -0.2417
      4 C         139.7791  139.7160  165.3478 C.ar    1  UNL1        0.1279
      5 N         139.0409  138.5443  165.9242 N.pl3   1  UNL1       -0.3427
      6 C         139.3376  140.5488  164.1810 C.ar    1  UNL1        0.1031
      7 H         139.4137  138.0585  166.6951 H       1  UNL1        0.1437
      8 H         138.1837  138.2611  165.5316 H       1  UNL1        0.1437
      9 C         140.3129  145.4255  158.2330 C.ar    1  UNL1        0.1386
     10 C         140.4457  143.9796  157.8564 C.ar    1  UNL1        0.0369
     11 C         140.4845  142.9270  158.9243 C.ar    1  UNL1        0.0031
     12 C         140.3905  143.3202  160.3688 C.ar    1  UNL1        0.0002
     13 C         140.4293  142.2676  161.4367 C.ar    1  UNL1        0.0016
     14 C         140.3353  142.6608  162.8811 C.ar    1  UNL1        0.0196
     15 C         140.2024  144.1067  163.2578 C.ar    1  UNL1        0.0016
     16 C         140.1637  145.1593  162.1899 C.ar    1  UNL1        0.0001
     17 C         140.2577  144.7661  160.7453 C.ar    1  UNL1        0.0030
     18 C         140.2189  145.8187  159.6774 C.ar    1  UNL1        0.0369
     19 O         140.2741  146.4781  157.1650 O.3     1  UNL1       -0.4755
     20 C         139.7199  146.2038  154.6417 C.3     1  UNL1        0.0512
     21 C         139.2649  146.3877  156.0591 C.3     1  UNL1        0.2055
     22 C         138.0805  140.3562  163.3858 C.2     1  UNL1        0.2470
     23 N         136.9688  141.3583  163.4856 N.am    1  UNL1       -0.3252
     24 O         137.9349  139.1614  162.4905 O.2     1  UNL1       -0.2702
     25 H         137.0643  142.1425  164.0731 H       1  UNL1        0.1453
     26 H         136.1437  141.2318  162.9636 H       1  UNL1        0.1453
     27 C         141.8893  139.7290  166.9885 C.3     1  UNL1        0.0903
     28 C         142.6445  138.8347  166.0505 C.3     1  UNL1        0.0246
     29 C         141.1340  140.6233  167.9266 C.3     1  UNL1        0.0246
     30 C         142.6901  139.1975  168.1401 C.3     1  UNL1        0.0543
     31 C         142.6032  139.8597  169.4832 C.3     1  UNL1        0.1391
     32 O         143.0388  139.1205  170.7135 O.3     1  UNL1       -0.3819
     33 H         142.4463  138.3676  170.8651 H       1  UNL1        0.2104
@<TRIPOS>BOND
     1    20    21    1
     2    21    19    1
     3    19     9    1
     4     9    10   ar
     5    10    11   ar
     6    11    12   ar
     7    12    13   ar
     8    13    14   ar
     9    14     1    1
    10     1     2   ar
    11     2     3   ar
    12     3    27    1
    13    27    28    1
    14    27    29    1
    15    27    30    1
    16    30    31    1
    17    31    32    1
    18     3     4   ar
    19     4     5    1
    20     4     6   ar
    21     6    22    1
    22    22    23   am
    23    22    24    2
    24    14    15   ar
    25    15    16   ar
    26    16    17   ar
    27    17    18   ar
    28    18     9   ar
    29    17    12   ar
    30     6     1   ar
    31    32    33    1
    32     5     7    1
    33     5     8    1
    34    23    25    1
    35    23    26    1
