@<TRIPOS>MOLECULE
*****
 48 55 0 0 0
SMALL
GASTEIGER

@<TRIPOS>ATOM
      1 C         140.3309  140.0058  159.0365 C.ar    1  UNL1        0.0177
      2 C         139.5576  138.7809  158.6465 C.ar    1  UNL1        0.0012
      3 C         140.0565  137.8999  157.5397 C.ar    1  UNL1       -0.0029
      4 C         141.3286  138.2437  156.8230 C.ar    1  UNL1       -0.0061
      5 C         142.1018  139.4685  157.2131 C.ar    1  UNL1       -0.0029
      6 C         141.6029  140.3495  158.3198 C.ar    1  UNL1        0.0012
      7 C         139.5468  142.0291  165.2043 C.ar    1  UNL1        0.2216
      8 N         138.6916  143.2199  164.8873 N.ar    1  UNL1       -0.2120
      9 C         138.3353  143.5298  163.4636 C.ar    1  UNL1        0.1048
     10 C         138.8342  142.6488  162.3568 C.ar    1  UNL1        0.0551
     11 C         138.4779  142.9587  160.9331 C.ar    1  UNL1        0.0061
     12 C         138.9767  142.0777  159.8263 C.ar    1  UNL1        0.0179
     13 C         139.8320  140.8868  160.1433 C.ar    1  UNL1        0.0829
     14 N         140.1883  140.5769  161.5670 N.ar    1  UNL1       -0.2264
     15 C         139.6894  141.4579  162.6738 C.ar    1  UNL1        0.1666
     16 N         140.0457  141.1481  164.0975 N.ar    1  UNL1       -0.1945
     17 C         140.9722  140.7897  170.8992 C.3     1  UNL1        0.0897
     18 N         140.6158  141.0995  169.4755 N.3     1  UNL1       -0.2686
     19 C         140.0405  140.0289  168.5963 C.3     1  UNL1        0.0939
     20 C         139.6842  140.3388  167.1726 C.3     1  UNL1        0.1109
     21 N         139.9031  141.7192  166.6280 N.pl3   1  UNL1       -0.2753
     22 C         140.4784  142.7898  167.5072 C.3     1  UNL1        0.1109
     23 C         140.8347  142.4799  168.9309 C.3     1  UNL1        0.0939
     24 C         138.6205  142.3875  158.4026 C.ar    1  UNL1        0.0015
     25 C         137.4737  141.6785  157.7451 C.ar    1  UNL1        0.0000
     26 C         137.1174  141.9883  156.3214 C.ar    1  UNL1        0.0000
     27 C         137.9078  143.0071  155.5551 C.ar    1  UNL1        0.0000
     28 C         139.0545  143.7161  156.2125 C.ar    1  UNL1        0.0000
     29 C         139.4109  143.4063  157.6363 C.ar    1  UNL1        0.0000
     30 C         141.8275  137.3627  155.7162 C.3     1  UNL1        0.0991
     31 N         142.0928  135.9094  155.9762 N.3     1  UNL1       -0.2689
     32 C         141.3421  134.8612  155.2096 C.3     1  UNL1        0.0728
     33 C         141.6074  133.4078  155.4695 C.3     1  UNL1        0.0249
     34 C         142.6232  133.0028  156.4962 C.3     1  UNL1        0.0613
     35 C         143.3738  134.0511  157.2628 C.3     1  UNL1        0.0249
     36 C         143.1086  135.5043  157.0028 C.3     1  UNL1        0.0728
     37 C         142.8884  131.5495  156.7562 C.ar    1  UNL1        0.1397
     38 N         142.3808  130.4002  155.9367 N.ar    1  UNL1       -0.1335
     39 N         142.8865  129.1308  156.5553 N.ar    1  UNL1       -0.1261
     40 C         143.7067  129.4955  157.7572 C.ar    1  UNL1        0.1990
     41 N         143.7079  130.9904  157.8813 N.ar    1  UNL1       -0.3221
     42 H         144.1660  131.5128  158.5787 H       1  UNL1        0.1687
     43 C         144.4034  128.5341  158.6739 C.ar    1  UNL1        0.1988
     44 N         145.3862  127.5464  158.1185 N.ar    1  UNL1       -0.2224
     45 C         146.0828  126.5851  159.0353 C.ar    1  UNL1        0.1023
     46 C         145.7967  126.6114  160.5075 C.ar    1  UNL1        0.0414
     47 C         144.8139  127.5992  161.0629 C.ar    1  UNL1        0.1023
     48 N         144.1173  128.5605  160.1462 N.ar    1  UNL1       -0.2224
@<TRIPOS>BOND
     1    17    18    1
     2    18    19    1
     3    19    20    1
     4    20    21    1
     5    21     7    1
     6     7     8   ar
     7     8     9   ar
     8     9    10   ar
     9    10    11   ar
    10    11    12   ar
    11    12    24    1
    12    24    25   ar
    13    25    26   ar
    14    26    27   ar
    15    27    28   ar
    16    28    29   ar
    17    12    13   ar
    18    13     1    1
    19     1     2   ar
    20     2     3   ar
    21     3     4   ar
    22     4    30    1
    23    30    31    1
    24    31    32    1
    25    32    33    1
    26    33    34    1
    27    34    37    1
    28    37    38   ar
    29    38    39   ar
    30    39    40   ar
    31    40    43    1
    32    43    44   ar
    33    44    45   ar
    34    45    46   ar
    35    46    47   ar
    36    47    48   ar
    37    40    41   ar
    38    34    35    1
    39    35    36    1
    40     4     5   ar
    41     5     6   ar
    42    13    14   ar
    43    14    15   ar
    44    15    16   ar
    45    21    22    1
    46    22    23    1
    47    23    18    1
    48    16     7   ar
    49    15    10   ar
    50    29    24   ar
    51     6     1   ar
    52    36    31    1
    53    41    37   ar
    54    48    43   ar
    55    41    42    1
@<TRIPOS>MOLECULE
*****
 48 55 0 0 0
SMALL
GASTEIGER

@<TRIPOS>ATOM
      1 C         142.0841  140.8844  164.0046 C.ar    1  UNL1        0.0177
      2 C         141.6548  139.8792  162.9773 C.ar    1  UNL1        0.0012
      3 C         141.9744  140.1036  161.5291 C.ar    1  UNL1       -0.0029
      4 C         142.7234  141.3332  161.1081 C.ar    1  UNL1       -0.0061
      5 C         143.1527  142.3384  162.1354 C.ar    1  UNL1       -0.0029
      6 C         142.8331  142.1140  163.5836 C.ar    1  UNL1        0.0012
      7 C         142.9276  138.5071  170.0367 C.ar    1  UNL1        0.2216
      8 N         141.7068  139.1348  170.6414 N.ar    1  UNL1       -0.2120
      9 C         140.8056  139.9868  169.7977 C.ar    1  UNL1        0.1048
     10 C         141.1253  140.2112  168.3494 C.ar    1  UNL1        0.0551
     11 C         140.2240  141.0634  167.5058 C.ar    1  UNL1        0.0061
     12 C         140.5436  141.2878  166.0575 C.ar    1  UNL1        0.0179
     13 C         141.7645  140.6600  165.4529 C.ar    1  UNL1        0.0829
     14 N         142.6657  139.8080  166.2966 N.ar    1  UNL1       -0.2264
     15 C         142.3461  139.5836  167.7448 C.ar    1  UNL1        0.1666
     16 N         143.2473  138.7315  168.5885 N.ar    1  UNL1       -0.1945
     17 C         146.5327  135.0989  173.4113 C.3     1  UNL1        0.0897
     18 N         145.6314  135.9509  172.5677 N.3     1  UNL1       -0.2686
     19 C         144.6991  135.3099  171.5828 C.3     1  UNL1        0.0939
     20 C         143.7979  136.1620  170.7392 C.3     1  UNL1        0.1109
     21 N         143.8289  137.6550  170.8804 N.pl3   1  UNL1       -0.2753
     22 C         144.7612  138.2960  171.8653 C.3     1  UNL1        0.1109
     23 C         145.6625  137.4440  172.7089 C.3     1  UNL1        0.0939
     24 C         139.6424  142.1398  165.2138 C.ar    1  UNL1        0.0015
     25 C         139.8126  143.6302  165.2037 C.ar    1  UNL1        0.0000
     26 C         138.9114  144.4822  164.3601 C.ar    1  UNL1        0.0000
     27 C         137.8400  143.8440  163.5265 C.ar    1  UNL1        0.0000
     28 C         137.6698  142.3538  163.5366 C.ar    1  UNL1        0.0000
     29 C         138.5710  141.5016  164.3803 C.ar    1  UNL1        0.0000
     30 C         143.0430  141.5576  159.6598 C.3     1  UNL1        0.0991
     31 N         142.2579  142.5586  158.8649 N.3     1  UNL1       -0.2689
     32 C         142.9695  143.6478  158.1185 C.3     1  UNL1        0.0728
     33 C         142.1845  144.6488  157.3235 C.3     1  UNL1        0.0249
     34 C         140.6879  144.5605  157.2750 C.3     1  UNL1        0.0613
     35 C         139.9763  143.4711  158.0215 C.3     1  UNL1        0.0249
     36 C         140.7613  142.4703  158.8164 C.3     1  UNL1        0.0728
     37 C         139.9028  145.5613  156.4801 C.ar    1  UNL1        0.1397
     38 N         138.6438  145.2857  155.7127 N.ar    1  UNL1       -0.1335
     39 N         138.2018  146.5676  155.0713 N.ar    1  UNL1       -0.1261
     40 C         139.1877  147.6355  155.4425 C.ar    1  UNL1        0.1990
     41 N         140.2389  147.0136  156.3131 N.ar    1  UNL1       -0.3221
     42 H         141.0135  147.4772  156.7060 H       1  UNL1        0.1687
     43 C         139.1320  149.0730  155.0175 C.ar    1  UNL1        0.1988
     44 N         138.4667  150.0899  155.8969 N.ar    1  UNL1       -0.2224
     45 C         138.4110  151.5273  155.4719 C.ar    1  UNL1        0.1023
     46 C         139.0207  151.9480  154.1676 C.ar    1  UNL1        0.0414
     47 C         139.6861  150.9310  153.2882 C.ar    1  UNL1        0.1023
     48 N         139.7417  149.4937  153.7132 N.ar    1  UNL1       -0.2224
@<TRIPOS>BOND
     1    17    18    1
     2    18    19    1
     3    19    20    1
     4    20    21    1
     5    21     7    1
     6     7     8   ar
     7     8     9   ar
     8     9    10   ar
     9    10    11   ar
    10    11    12   ar
    11    12    24    1
    12    24    25   ar
    13    25    26   ar
    14    26    27   ar
    15    27    28   ar
    16    28    29   ar
    17    12    13   ar
    18    13     1    1
    19     1     2   ar
    20     2     3   ar
    21     3     4   ar
    22     4    30    1
    23    30    31    1
    24    31    32    1
    25    32    33    1
    26    33    34    1
    27    34    37    1
    28    37    38   ar
    29    38    39   ar
    30    39    40   ar
    31    40    43    1
    32    43    44   ar
    33    44    45   ar
    34    45    46   ar
    35    46    47   ar
    36    47    48   ar
    37    40    41   ar
    38    34    35    1
    39    35    36    1
    40     4     5   ar
    41     5     6   ar
    42    13    14   ar
    43    14    15   ar
    44    15    16   ar
    45    21    22    1
    46    22    23    1
    47    23    18    1
    48    16     7   ar
    49    15    10   ar
    50    29    24   ar
    51     6     1   ar
    52    36    31    1
    53    41    37   ar
    54    48    43   ar
    55    41    42    1
@<TRIPOS>MOLECULE
*****
 48 55 0 0 0
SMALL
GASTEIGER

@<TRIPOS>ATOM
      1 C         141.3337  141.0198  158.9313 C.ar    1  UNL1        0.0177
      2 C         142.7368  140.9359  158.4073 C.ar    1  UNL1        0.0012
      3 C         143.0498  140.0464  157.2408 C.ar    1  UNL1       -0.0029
      4 C         141.9597  139.2408  156.5982 C.ar    1  UNL1       -0.0061
      5 C         140.5568  139.3247  157.1221 C.ar    1  UNL1       -0.0029
      6 C         140.2437  140.2142  158.2887 C.ar    1  UNL1        0.0012
      7 C         140.2501  142.5381  165.1978 C.ar    1  UNL1        0.2216
      8 N         140.0094  144.0027  164.9809 N.ar    1  UNL1       -0.2120
      9 C         140.0817  144.5778  163.5974 C.ar    1  UNL1        0.1048
     10 C         140.3947  143.6883  162.4309 C.ar    1  UNL1        0.0551
     11 C         140.4670  144.2634  161.0474 C.ar    1  UNL1        0.0061
     12 C         140.7800  143.3739  159.8808 C.ar    1  UNL1        0.0179
     13 C         141.0207  141.9093  160.0978 C.ar    1  UNL1        0.0829
     14 N         140.9484  141.3342  161.4813 N.ar    1  UNL1       -0.2264
     15 C         140.6354  142.2237  162.6478 C.ar    1  UNL1        0.1666
     16 N         140.5631  141.6487  164.0313 N.ar    1  UNL1       -0.1945
     17 C         139.9609  140.2378  170.7318 C.3     1  UNL1        0.0897
     18 N         140.0332  140.8128  169.3484 N.3     1  UNL1       -0.2686
     19 C         139.5353  140.0171  168.1784 C.3     1  UNL1        0.0939
     20 C         139.6076  140.5922  166.7949 C.3     1  UNL1        0.1109
     21 N         140.1778  141.9630  166.5814 N.pl3   1  UNL1       -0.2753
     22 C         140.6757  142.7588  167.7513 C.3     1  UNL1        0.1109
     23 C         140.6034  142.1837  169.1348 C.3     1  UNL1        0.0939
     24 C         140.8523  143.9489  158.4973 C.ar    1  UNL1        0.0015
     25 C         142.1204  144.5903  158.0170 C.ar    1  UNL1        0.0000
     26 C         142.1927  145.1653  156.6335 C.ar    1  UNL1        0.0000
     27 C         140.9970  145.0991  155.7303 C.ar    1  UNL1        0.0000
     28 C         139.7289  144.4578  156.2106 C.ar    1  UNL1        0.0000
     29 C         139.6565  143.8827  157.5942 C.ar    1  UNL1        0.0000
     30 C         142.2727  138.3513  155.4316 C.3     1  UNL1        0.0991
     31 N         142.6321  136.9130  155.6604 N.3     1  UNL1       -0.2689
     32 C         142.6922  135.9616  154.5023 C.3     1  UNL1        0.0728
     33 C         143.0516  134.5233  154.7310 C.3     1  UNL1        0.0249
     34 C         143.3510  134.0365  156.1179 C.3     1  UNL1        0.0613
     35 C         143.2909  134.9880  157.2760 C.3     1  UNL1        0.0249
     36 C         142.9315  136.4262  157.0473 C.3     1  UNL1        0.0728
     37 C         143.7103  132.5983  156.3467 C.ar    1  UNL1        0.1397
     38 N         144.8177  131.8476  155.6683 N.ar    1  UNL1       -0.1335
     39 N         144.8173  130.4436  156.1964 N.ar    1  UNL1       -0.1261
     40 C         143.7096  130.3267  157.2012 C.ar    1  UNL1        0.1990
     41 N         143.0255  131.6584  157.2940 N.ar    1  UNL1       -0.3221
     42 H         142.2612  131.8771  157.8748 H       1  UNL1        0.1687
     43 C         143.3493  129.0944  157.9768 C.ar    1  UNL1        0.1988
     44 N         143.8468  128.9199  159.3811 N.ar    1  UNL1       -0.2224
     45 C         143.4865  127.6876  160.1568 C.ar    1  UNL1        0.1023
     46 C         142.6287  126.6298  159.5282 C.ar    1  UNL1        0.0414
     47 C         142.1311  126.8043  158.1238 C.ar    1  UNL1        0.1023
     48 N         142.4914  128.0366  157.3482 N.ar    1  UNL1       -0.2224
@<TRIPOS>BOND
     1    17    18    1
     2    18    19    1
     3    19    20    1
     4    20    21    1
     5    21     7    1
     6     7     8   ar
     7     8     9   ar
     8     9    10   ar
     9    10    11   ar
    10    11    12   ar
    11    12    24    1
    12    24    25   ar
    13    25    26   ar
    14    26    27   ar
    15    27    28   ar
    16    28    29   ar
    17    12    13   ar
    18    13     1    1
    19     1     2   ar
    20     2     3   ar
    21     3     4   ar
    22     4    30    1
    23    30    31    1
    24    31    32    1
    25    32    33    1
    26    33    34    1
    27    34    37    1
    28    37    38   ar
    29    38    39   ar
    30    39    40   ar
    31    40    43    1
    32    43    44   ar
    33    44    45   ar
    34    45    46   ar
    35    46    47   ar
    36    47    48   ar
    37    40    41   ar
    38    34    35    1
    39    35    36    1
    40     4     5   ar
    41     5     6   ar
    42    13    14   ar
    43    14    15   ar
    44    15    16   ar
    45    21    22    1
    46    22    23    1
    47    23    18    1
    48    16     7   ar
    49    15    10   ar
    50    29    24   ar
    51     6     1   ar
    52    36    31    1
    53    41    37   ar
    54    48    43   ar
    55    41    42    1
@<TRIPOS>MOLECULE
*****
 48 55 0 0 0
SMALL
GASTEIGER

@<TRIPOS>ATOM
      1 C         140.1728  143.2150  160.9591 C.ar    1  UNL1        0.0177
      2 C         138.9582  142.4833  161.4484 C.ar    1  UNL1        0.0012
      3 C         138.8353  142.1196  162.8985 C.ar    1  UNL1       -0.0029
      4 C         139.9269  142.4878  163.8592 C.ar    1  UNL1       -0.0061
      5 C         141.1414  143.2195  163.3698 C.ar    1  UNL1       -0.0029
      6 C         141.2644  143.5831  161.9198 C.ar    1  UNL1        0.0012
      7 C         139.8509  147.0781  155.6939 C.ar    1  UNL1        0.2216
      8 N         140.3193  146.0556  154.7013 N.ar    1  UNL1       -0.2120
      9 C         140.6647  144.6695  155.1589 C.ar    1  UNL1        0.1048
     10 C         140.5417  144.3059  156.6089 C.ar    1  UNL1        0.0551
     11 C         140.8871  142.9197  157.0664 C.ar    1  UNL1        0.0061
     12 C         140.7641  142.5561  158.5165 C.ar    1  UNL1        0.0179
     13 C         140.2958  143.5786  159.5090 C.ar    1  UNL1        0.0829
     14 N         139.9504  144.9648  159.0515 N.ar    1  UNL1       -0.2264
     15 C         140.0733  145.3284  157.6015 C.ar    1  UNL1        0.1666
     16 N         139.7280  146.7145  157.1439 N.ar    1  UNL1       -0.1945
     17 C         138.4693  152.6227  153.8640 C.3     1  UNL1        0.0897
     18 N         138.8147  151.2366  154.3214 N.3     1  UNL1       -0.2686
     19 C         139.5642  150.3109  153.4097 C.3     1  UNL1        0.0939
     20 C         139.9096  148.9247  153.8672 C.3     1  UNL1        0.1109
     21 N         139.5055  148.4643  155.2364 N.pl3   1  UNL1       -0.2753
     22 C         138.7560  149.3900  156.1481 C.3     1  UNL1        0.1109
     23 C         138.4106  150.7761  155.6906 C.3     1  UNL1        0.0939
     24 C         141.1095  141.1700  158.9740 C.ar    1  UNL1        0.0015
     25 C         140.0884  140.0747  158.8855 C.ar    1  UNL1        0.0000
     26 C         140.4338  138.6886  159.3431 C.ar    1  UNL1        0.0000
     27 C         141.8003  138.3977  159.8891 C.ar    1  UNL1        0.0000
     28 C         142.8213  139.4929  159.9776 C.ar    1  UNL1        0.0000
     29 C         142.4760  140.8791  159.5201 C.ar    1  UNL1        0.0000
     30 C         139.8039  142.1241  165.3093 C.3     1  UNL1        0.0991
     31 N         140.7403  141.1195  165.9126 N.3     1  UNL1       -0.2689
     32 C         141.2817  140.0003  165.0734 C.3     1  UNL1        0.0728
     33 C         142.2181  138.9957  165.6767 C.3     1  UNL1        0.0249
     34 C         142.6131  139.1103  167.1192 C.3     1  UNL1        0.0613
     35 C         142.0717  140.2296  167.9584 C.3     1  UNL1        0.0249
     36 C         141.1353  141.2341  167.3551 C.3     1  UNL1        0.0728
     37 C         143.5494  138.1057  167.7225 C.ar    1  UNL1        0.1397
     38 N         144.4615  137.1854  166.9667 N.ar    1  UNL1       -0.1335
     39 N         145.2139  136.3560  167.9646 N.ar    1  UNL1       -0.1261
     40 C         144.7668  136.7636  169.3372 C.ar    1  UNL1        0.1990
     41 N         143.7381  137.8450  169.1875 N.ar    1  UNL1       -0.3221
     42 H         143.2691  138.3032  169.9219 H       1  UNL1        0.1687
     43 C         145.2616  136.1905  170.6321 C.ar    1  UNL1        0.1988
     44 N         144.4829  135.1082  171.3194 N.ar    1  UNL1       -0.2224
     45 C         144.9777  134.5351  172.6143 C.ar    1  UNL1        0.1023
     46 C         146.2511  135.0443  173.2220 C.ar    1  UNL1        0.0414
     47 C         147.0297  136.1266  172.5346 C.ar    1  UNL1        0.1023
     48 N         146.5350  136.6996  171.2398 N.ar    1  UNL1       -0.2224
@<TRIPOS>BOND
     1    17    18    1
     2    18    19    1
     3    19    20    1
     4    20    21    1
     5    21     7    1
     6     7     8   ar
     7     8     9   ar
     8     9    10   ar
     9    10    11   ar
    10    11    12   ar
    11    12    24    1
    12    24    25   ar
    13    25    26   ar
    14    26    27   ar
    15    27    28   ar
    16    28    29   ar
    17    12    13   ar
    18    13     1    1
    19     1     2   ar
    20     2     3   ar
    21     3     4   ar
    22     4    30    1
    23    30    31    1
    24    31    32    1
    25    32    33    1
    26    33    34    1
    27    34    37    1
    28    37    38   ar
    29    38    39   ar
    30    39    40   ar
    31    40    43    1
    32    43    44   ar
    33    44    45   ar
    34    45    46   ar
    35    46    47   ar
    36    47    48   ar
    37    40    41   ar
    38    34    35    1
    39    35    36    1
    40     4     5   ar
    41     5     6   ar
    42    13    14   ar
    43    14    15   ar
    44    15    16   ar
    45    21    22    1
    46    22    23    1
    47    23    18    1
    48    16     7   ar
    49    15    10   ar
    50    29    24   ar
    51     6     1   ar
    52    36    31    1
    53    41    37   ar
    54    48    43   ar
    55    41    42    1
@<TRIPOS>MOLECULE
*****
 48 55 0 0 0
SMALL
GASTEIGER

@<TRIPOS>ATOM
      1 C         141.6483  140.7397  164.0526 C.ar    1  UNL1        0.0177
      2 C         142.5823  141.7462  163.4487 C.ar    1  UNL1        0.0012
      3 C         142.7303  141.8325  161.9585 C.ar    1  UNL1       -0.0029
      4 C         141.9444  140.9122  161.0722 C.ar    1  UNL1       -0.0061
      5 C         141.0105  139.9057  161.6761 C.ar    1  UNL1       -0.0029
      6 C         140.8624  139.8194  163.1663 C.ar    1  UNL1        0.0012
      7 C         142.9851  138.6569  170.1044 C.ar    1  UNL1        0.2216
      8 N         141.9466  139.4827  170.8040 N.ar    1  UNL1       -0.2120
      9 C         141.0561  140.3948  170.0133 C.ar    1  UNL1        0.1048
     10 C         141.2042  140.4810  168.5231 C.ar    1  UNL1        0.0551
     11 C         140.3136  141.3931  167.7325 C.ar    1  UNL1        0.0061
     12 C         140.4617  141.4793  166.2423 C.ar    1  UNL1        0.0179
     13 C         141.5003  140.6535  165.5428 C.ar    1  UNL1        0.0829
     14 N         142.3907  139.7414  166.3334 N.ar    1  UNL1       -0.2264
     15 C         142.2427  139.6552  167.8236 C.ar    1  UNL1        0.1666
     16 N         143.1332  138.7431  168.6142 N.ar    1  UNL1       -0.1945
     17 C         146.5473  135.0085  173.2669 C.3     1  UNL1        0.0897
     18 N         145.6567  135.9206  172.4763 N.3     1  UNL1       -0.2686
     19 C         144.6617  135.3464  171.5117 C.3     1  UNL1        0.0939
     20 C         143.7712  136.2585  170.7211 C.3     1  UNL1        0.1109
     21 N         143.8757  137.7447  170.8950 N.pl3   1  UNL1       -0.2753
     22 C         144.8707  138.3189  171.8596 C.3     1  UNL1        0.1109
     23 C         145.7612  137.4068  172.6502 C.3     1  UNL1        0.0939
     24 C         139.5712  142.3914  165.4517 C.ar    1  UNL1        0.0015
     25 C         138.3364  141.8496  164.7945 C.ar    1  UNL1        0.0000
     26 C         137.4459  142.7617  164.0039 C.ar    1  UNL1        0.0000
     27 C         137.7902  144.2156  163.8704 C.ar    1  UNL1        0.0000
     28 C         139.0249  144.7573  164.5275 C.ar    1  UNL1        0.0000
     29 C         139.9154  143.8453  165.3182 C.ar    1  UNL1        0.0000
     30 C         142.0925  140.9984  159.5820 C.3     1  UNL1        0.0991
     31 N         142.0358  139.7520  158.7493 N.3     1  UNL1       -0.2689
     32 C         142.9855  138.6236  159.0226 C.3     1  UNL1        0.0728
     33 C         142.9288  137.3772  158.1899 C.3     1  UNL1        0.0249
     34 C         141.9224  137.2592  157.0840 C.3     1  UNL1        0.0613
     35 C         140.9727  138.3877  156.8107 C.3     1  UNL1        0.0249
     36 C         141.0294  139.6340  157.6434 C.3     1  UNL1        0.0728
     37 C         141.8657  136.0129  156.2513 C.ar    1  UNL1        0.1397
     38 N         140.7812  135.6495  155.2808 N.ar    1  UNL1       -0.1335
     39 N         141.1288  134.3231  154.6726 N.ar    1  UNL1       -0.1261
     40 C         142.4281  133.8668  155.2672 C.ar    1  UNL1        0.1990
     41 N         142.8835  134.9111  156.2429 N.ar    1  UNL1       -0.3221
     42 H         143.7061  134.8791  156.7829 H       1  UNL1        0.1687
     43 C         143.1460  132.5902  154.9430 C.ar    1  UNL1        0.1988
     44 N         144.0394  131.9518  155.9649 N.ar    1  UNL1       -0.2224
     45 C         144.7573  130.6753  155.6408 C.ar    1  UNL1        0.1023
     46 C         144.5817  130.0371  154.2947 C.ar    1  UNL1        0.0414
     47 C         143.6882  130.6755  153.2728 C.ar    1  UNL1        0.1023
     48 N         142.9705  131.9520  153.5970 N.ar    1  UNL1       -0.2224
@<TRIPOS>BOND
     1    17    18    1
     2    18    19    1
     3    19    20    1
     4    20    21    1
     5    21     7    1
     6     7     8   ar
     7     8     9   ar
     8     9    10   ar
     9    10    11   ar
    10    11    12   ar
    11    12    24    1
    12    24    25   ar
    13    25    26   ar
    14    26    27   ar
    15    27    28   ar
    16    28    29   ar
    17    12    13   ar
    18    13     1    1
    19     1     2   ar
    20     2     3   ar
    21     3     4   ar
    22     4    30    1
    23    30    31    1
    24    31    32    1
    25    32    33    1
    26    33    34    1
    27    34    37    1
    28    37    38   ar
    29    38    39   ar
    30    39    40   ar
    31    40    43    1
    32    43    44   ar
    33    44    45   ar
    34    45    46   ar
    35    46    47   ar
    36    47    48   ar
    37    40    41   ar
    38    34    35    1
    39    35    36    1
    40     4     5   ar
    41     5     6   ar
    42    13    14   ar
    43    14    15   ar
    44    15    16   ar
    45    21    22    1
    46    22    23    1
    47    23    18    1
    48    16     7   ar
    49    15    10   ar
    50    29    24   ar
    51     6     1   ar
    52    36    31    1
    53    41    37   ar
    54    48    43   ar
    55    41    42    1
@<TRIPOS>MOLECULE
*****
 48 55 0 0 0
SMALL
GASTEIGER

@<TRIPOS>ATOM
      1 C         139.0999  142.6892  156.9699 C.ar    1  UNL1        0.0177
      2 C         139.7320  142.5062  158.3179 C.ar    1  UNL1        0.0012
      3 C         139.1455  141.5309  159.2950 C.ar    1  UNL1       -0.0029
      4 C         137.9269  140.7386  158.9242 C.ar    1  UNL1       -0.0061
      5 C         137.2949  140.9217  157.5762 C.ar    1  UNL1       -0.0029
      6 C         137.8814  141.8970  156.5991 C.ar    1  UNL1        0.0012
      7 C         139.9137  148.4620  154.0098 C.ar    1  UNL1        0.2216
      8 N         140.9730  148.0139  153.0470 N.ar    1  UNL1       -0.2120
      9 C         141.4458  146.5905  153.0613 C.ar    1  UNL1        0.1048
     10 C         140.8593  145.6152  154.0385 C.ar    1  UNL1        0.0551
     11 C         141.3322  144.1917  154.0527 C.ar    1  UNL1        0.0061
     12 C         140.7457  143.2164  155.0299 C.ar    1  UNL1        0.0179
     13 C         139.6864  143.6646  155.9927 C.ar    1  UNL1        0.0829
     14 N         139.2136  145.0880  155.9784 N.ar    1  UNL1       -0.2264
     15 C         139.8000  146.0633  155.0013 C.ar    1  UNL1        0.1666
     16 N         139.3272  147.4867  154.9869 N.ar    1  UNL1       -0.1945
     17 C         138.0224  154.1559  153.9525 C.3     1  UNL1        0.0897
     18 N         138.4952  152.7325  153.9669 N.3     1  UNL1       -0.2686
     19 C         138.4785  151.9495  155.2462 C.3     1  UNL1        0.0939
     20 C         138.9514  150.5260  155.2605 C.3     1  UNL1        0.1109
     21 N         139.4409  149.8855  153.9955 N.pl3   1  UNL1       -0.2753
     22 C         139.4575  150.6685  152.7162 C.3     1  UNL1        0.1109
     23 C         138.9847  152.0920  152.7019 C.3     1  UNL1        0.0939
     24 C         141.2185  141.7929  155.0442 C.ar    1  UNL1        0.0015
     25 C         140.5384  140.7680  154.1856 C.ar    1  UNL1        0.0000
     26 C         141.0112  139.3446  154.2000 C.ar    1  UNL1        0.0000
     27 C         142.1641  138.9460  155.0728 C.ar    1  UNL1        0.0000
     28 C         142.8442  139.9708  155.9314 C.ar    1  UNL1        0.0000
     29 C         142.3714  141.3943  155.9171 C.ar    1  UNL1        0.0000
     30 C         137.3404  139.7633  159.9013 C.3     1  UNL1        0.0991
     31 N         137.7345  139.8218  161.3475 N.3     1  UNL1       -0.2689
     32 C         138.4065  138.6446  161.9899 C.3     1  UNL1        0.0728
     33 C         138.8005  138.7031  163.4361 C.3     1  UNL1        0.0249
     34 C         138.5226  139.9388  164.2398 C.3     1  UNL1        0.0613
     35 C         137.8506  141.1159  163.5973 C.3     1  UNL1        0.0249
     36 C         137.4566  141.0574  162.1512 C.3     1  UNL1        0.0728
     37 C         138.9166  139.9973  165.6859 C.ar    1  UNL1        0.1397
     38 N         138.3204  139.1832  166.7958 N.ar    1  UNL1       -0.1335
     39 N         139.0114  139.5629  168.0719 N.ar    1  UNL1       -0.1261
     40 C         140.0346  140.6117  167.7506 C.ar    1  UNL1        0.1990
     41 N         139.9760  140.8801  166.2760 N.ar    1  UNL1       -0.3221
     42 H         140.5347  141.5229  165.7822 H       1  UNL1        0.1687
     43 C         140.9548  141.2755  168.7318 C.ar    1  UNL1        0.1988
     44 N         142.3045  141.7560  168.2875 N.ar    1  UNL1       -0.2224
     45 C         143.2247  142.4198  169.2686 C.ar    1  UNL1        0.1023
     46 C         142.7952  142.6031  170.6940 C.ar    1  UNL1        0.0414
     47 C         141.4454  142.1226  171.1383 C.ar    1  UNL1        0.1023
     48 N         140.5253  141.4589  170.1572 N.ar    1  UNL1       -0.2224
@<TRIPOS>BOND
     1    17    18    1
     2    18    19    1
     3    19    20    1
     4    20    21    1
     5    21     7    1
     6     7     8   ar
     7     8     9   ar
     8     9    10   ar
     9    10    11   ar
    10    11    12   ar
    11    12    24    1
    12    24    25   ar
    13    25    26   ar
    14    26    27   ar
    15    27    28   ar
    16    28    29   ar
    17    12    13   ar
    18    13     1    1
    19     1     2   ar
    20     2     3   ar
    21     3     4   ar
    22     4    30    1
    23    30    31    1
    24    31    32    1
    25    32    33    1
    26    33    34    1
    27    34    37    1
    28    37    38   ar
    29    38    39   ar
    30    39    40   ar
    31    40    43    1
    32    43    44   ar
    33    44    45   ar
    34    45    46   ar
    35    46    47   ar
    36    47    48   ar
    37    40    41   ar
    38    34    35    1
    39    35    36    1
    40     4     5   ar
    41     5     6   ar
    42    13    14   ar
    43    14    15   ar
    44    15    16   ar
    45    21    22    1
    46    22    23    1
    47    23    18    1
    48    16     7   ar
    49    15    10   ar
    50    29    24   ar
    51     6     1   ar
    52    36    31    1
    53    41    37   ar
    54    48    43   ar
    55    41    42    1
@<TRIPOS>MOLECULE
*****
 48 55 0 0 0
SMALL
GASTEIGER

@<TRIPOS>ATOM
      1 C         142.2194  137.4737  156.8764 C.ar    1  UNL1        0.0177
      2 C         143.3515  138.3252  156.3830 C.ar    1  UNL1        0.0012
      3 C         143.5439  139.7082  156.9310 C.ar    1  UNL1       -0.0029
      4 C         142.6041  140.2397  157.9724 C.ar    1  UNL1       -0.0061
      5 C         141.4720  139.3883  158.4656 C.ar    1  UNL1       -0.0029
      6 C         141.2796  138.0053  157.9176 C.ar    1  UNL1        0.0012
      7 C         143.1857  131.0258  156.3865 C.ar    1  UNL1        0.2216
      8 N         142.2216  130.7923  155.2614 N.ar    1  UNL1       -0.2120
      9 C         141.4498  131.9417  154.6844 C.ar    1  UNL1        0.1048
     10 C         141.6422  133.3247  155.2324 C.ar    1  UNL1        0.0551
     11 C         140.8704  134.4742  154.6552 C.ar    1  UNL1        0.0061
     12 C         141.0627  135.8572  155.2032 C.ar    1  UNL1        0.0179
     13 C         142.0270  136.0907  156.3284 C.ar    1  UNL1        0.0829
     14 N         142.7987  134.9413  156.9054 N.ar    1  UNL1       -0.2264
     15 C         142.6064  133.5583  156.3574 C.ar    1  UNL1        0.1666
     16 N         143.3781  132.4088  156.9345 N.ar    1  UNL1       -0.1945
     17 C         146.2730  126.4280  158.6950 C.3     1  UNL1        0.0897
     18 N         145.5012  127.5774  158.1179 N.3     1  UNL1       -0.2686
     19 C         145.0227  127.5215  156.6974 C.3     1  UNL1        0.0939
     20 C         144.2508  128.6710  156.1202 C.3     1  UNL1        0.1109
     21 N         143.9576  129.8763  156.9636 N.pl3   1  UNL1       -0.2753
     22 C         144.4362  129.9321  158.3841 C.3     1  UNL1        0.1109
     23 C         145.2080  128.7827  158.9613 C.3     1  UNL1        0.0939
     24 C         140.2910  137.0067  154.6262 C.ar    1  UNL1        0.0015
     25 C         140.9151  137.8773  153.5761 C.ar    1  UNL1        0.0000
     26 C         140.1433  139.0268  152.9991 C.ar    1  UNL1        0.0000
     27 C         138.7474  139.3057  153.4720 C.ar    1  UNL1        0.0000
     28 C         138.1233  138.4351  154.5220 C.ar    1  UNL1        0.0000
     29 C         138.8951  137.2856  155.0991 C.ar    1  UNL1        0.0000
     30 C         142.7965  141.6227  158.5203 C.3     1  UNL1        0.0991
     31 N         142.9694  141.8273  159.9963 N.3     1  UNL1       -0.2689
     32 C         142.2214  142.9243  160.6941 C.3     1  UNL1        0.0728
     33 C         142.3943  143.1289  162.1700 C.3     1  UNL1        0.0249
     34 C         143.3151  142.2364  162.9481 C.3     1  UNL1        0.0613
     35 C         144.0631  141.1393  162.2502 C.3     1  UNL1        0.0249
     36 C         143.8902  140.9348  160.7744 C.3     1  UNL1        0.0728
     37 C         143.4880  142.4409  164.4240 C.ar    1  UNL1        0.1397
     38 N         144.3803  143.4559  165.0749 N.ar    1  UNL1       -0.1335
     39 N         144.2428  143.3086  166.5613 N.ar    1  UNL1       -0.1261
     40 C         143.2654  142.2026  166.8290 C.ar    1  UNL1        0.1990
     41 N         142.7990  141.6664  165.5081 N.ar    1  UNL1       -0.3221
     42 H         142.1539  140.9345  165.3759 H       1  UNL1        0.1687
     43 C         142.8308  141.7180  168.1804 C.ar    1  UNL1        0.1988
     44 N         142.6689  140.2485  168.4338 N.ar    1  UNL1       -0.2224
     45 C         142.2343  139.7638  169.7852 C.ar    1  UNL1        0.1023
     46 C         141.9617  140.7487  170.8832 C.ar    1  UNL1        0.0414
     47 C         142.1237  142.2184  170.6298 C.ar    1  UNL1        0.1023
     48 N         142.5582  142.7029  169.2784 N.ar    1  UNL1       -0.2224
@<TRIPOS>BOND
     1    17    18    1
     2    18    19    1
     3    19    20    1
     4    20    21    1
     5    21     7    1
     6     7     8   ar
     7     8     9   ar
     8     9    10   ar
     9    10    11   ar
    10    11    12   ar
    11    12    24    1
    12    24    25   ar
    13    25    26   ar
    14    26    27   ar
    15    27    28   ar
    16    28    29   ar
    17    12    13   ar
    18    13     1    1
    19     1     2   ar
    20     2     3   ar
    21     3     4   ar
    22     4    30    1
    23    30    31    1
    24    31    32    1
    25    32    33    1
    26    33    34    1
    27    34    37    1
    28    37    38   ar
    29    38    39   ar
    30    39    40   ar
    31    40    43    1
    32    43    44   ar
    33    44    45   ar
    34    45    46   ar
    35    46    47   ar
    36    47    48   ar
    37    40    41   ar
    38    34    35    1
    39    35    36    1
    40     4     5   ar
    41     5     6   ar
    42    13    14   ar
    43    14    15   ar
    44    15    16   ar
    45    21    22    1
    46    22    23    1
    47    23    18    1
    48    16     7   ar
    49    15    10   ar
    50    29    24   ar
    51     6     1   ar
    52    36    31    1
    53    41    37   ar
    54    48    43   ar
    55    41    42    1
@<TRIPOS>MOLECULE
*****
 48 55 0 0 0
SMALL
GASTEIGER

@<TRIPOS>ATOM
      1 C         141.6325  140.3868  160.0838 C.ar    1  UNL1        0.0177
      2 C         142.6934  140.9060  161.0086 C.ar    1  UNL1        0.0012
      3 C         142.3113  141.7413  162.1944 C.ar    1  UNL1       -0.0029
      4 C         140.8684  142.0575  162.4555 C.ar    1  UNL1       -0.0061
      5 C         139.8076  141.5384  161.5307 C.ar    1  UNL1       -0.0029
      6 C         140.1897  140.7030  160.3449 C.ar    1  UNL1        0.0012
      7 C         143.3100  134.9478  156.8663 C.ar    1  UNL1        0.2216
      8 N         143.4264  135.5788  155.5105 N.ar    1  UNL1       -0.2120
      9 C         143.1608  137.0453  155.3405 C.ar    1  UNL1        0.1048
     10 C         142.7787  137.8807  156.5264 C.ar    1  UNL1        0.0551
     11 C         142.5131  139.3472  156.3564 C.ar    1  UNL1        0.0061
     12 C         142.1310  140.1826  157.5422 C.ar    1  UNL1        0.0179
     13 C         142.0146  139.5514  158.8980 C.ar    1  UNL1        0.0829
     14 N         142.2802  138.0850  159.0680 N.ar    1  UNL1       -0.2264
     15 C         142.6623  137.2496  157.8821 C.ar    1  UNL1        0.1666
     16 N         142.9280  135.7832  158.0521 N.ar    1  UNL1       -0.1945
     17 C         144.3725  129.0818  157.5462 C.3     1  UNL1        0.0897
     18 N         144.1069  130.5483  157.3762 N.3     1  UNL1       -0.2686
     19 C         145.0505  131.5546  157.9652 C.3     1  UNL1        0.0939
     20 C         144.7849  133.0211  157.7952 C.3     1  UNL1        0.1109
     21 N         143.5757  133.4813  157.0363 N.pl3   1  UNL1       -0.2753
     22 C         142.6321  132.4749  156.4473 C.3     1  UNL1        0.1109
     23 C         142.8977  131.0085  156.6172 C.3     1  UNL1        0.0939
     24 C         141.8654  141.6490  157.3722 C.ar    1  UNL1        0.0015
     25 C         140.5139  142.1192  156.9221 C.ar    1  UNL1        0.0000
     26 C         140.2483  143.5856  156.7521 C.ar    1  UNL1        0.0000
     27 C         141.3340  144.5820  157.0323 C.ar    1  UNL1        0.0000
     28 C         142.6854  144.1118  157.4825 C.ar    1  UNL1        0.0000
     29 C         142.9511  142.6453  157.6525 C.ar    1  UNL1        0.0000
     30 C         140.4863  142.8929  163.6413 C.3     1  UNL1        0.0991
     31 N         140.2148  142.2385  164.9635 N.3     1  UNL1       -0.2689
     32 C         140.7261  142.8624  166.2281 C.3     1  UNL1        0.0728
     33 C         140.4545  142.2080  167.5503 C.3     1  UNL1        0.0249
     34 C         139.6716  140.9298  167.6078 C.3     1  UNL1        0.0613
     35 C         139.1603  140.3060  166.3431 C.3     1  UNL1        0.0249
     36 C         139.4319  140.9604  165.0210 C.3     1  UNL1        0.0728
     37 C         139.4000  140.2754  168.9299 C.ar    1  UNL1        0.1397
     38 N         140.3839  140.1088  170.0498 N.ar    1  UNL1       -0.1335
     39 N         139.6888  139.4032  171.1763 N.ar    1  UNL1       -0.1261
     40 C         138.2754  139.1337  170.7525 C.ar    1  UNL1        0.1990
     41 N         138.0969  139.6728  169.3642 N.ar    1  UNL1       -0.3221
     42 H         137.2697  139.6373  168.8315 H       1  UNL1        0.1687
     43 C         137.2248  138.4459  171.5731 C.ar    1  UNL1        0.1988
     44 N         137.5193  137.1201  172.2099 N.ar    1  UNL1       -0.2224
     45 C         136.4688  136.4323  173.0305 C.ar    1  UNL1        0.1023
     46 C         135.1237  137.0703  173.2142 C.ar    1  UNL1        0.0414
     47 C         134.8292  138.3961  172.5773 C.ar    1  UNL1        0.1023
     48 N         135.8797  139.0838  171.7568 N.ar    1  UNL1       -0.2224
@<TRIPOS>BOND
     1    17    18    1
     2    18    19    1
     3    19    20    1
     4    20    21    1
     5    21     7    1
     6     7     8   ar
     7     8     9   ar
     8     9    10   ar
     9    10    11   ar
    10    11    12   ar
    11    12    24    1
    12    24    25   ar
    13    25    26   ar
    14    26    27   ar
    15    27    28   ar
    16    28    29   ar
    17    12    13   ar
    18    13     1    1
    19     1     2   ar
    20     2     3   ar
    21     3     4   ar
    22     4    30    1
    23    30    31    1
    24    31    32    1
    25    32    33    1
    26    33    34    1
    27    34    37    1
    28    37    38   ar
    29    38    39   ar
    30    39    40   ar
    31    40    43    1
    32    43    44   ar
    33    44    45   ar
    34    45    46   ar
    35    46    47   ar
    36    47    48   ar
    37    40    41   ar
    38    34    35    1
    39    35    36    1
    40     4     5   ar
    41     5     6   ar
    42    13    14   ar
    43    14    15   ar
    44    15    16   ar
    45    21    22    1
    46    22    23    1
    47    23    18    1
    48    16     7   ar
    49    15    10   ar
    50    29    24   ar
    51     6     1   ar
    52    36    31    1
    53    41    37   ar
    54    48    43   ar
    55    41    42    1
@<TRIPOS>MOLECULE
*****
 48 55 0 0 0
SMALL
GASTEIGER

@<TRIPOS>ATOM
      1 C         139.9809  139.5390  160.6365 C.ar    1  UNL1        0.0177
      2 C         138.5444  139.9446  160.7849 C.ar    1  UNL1        0.0012
      3 C         137.9335  140.0553  162.1504 C.ar    1  UNL1       -0.0029
      4 C         138.7593  139.7604  163.3676 C.ar    1  UNL1       -0.0061
      5 C         140.1957  139.3549  163.2191 C.ar    1  UNL1       -0.0029
      6 C         140.8066  139.2442  161.8536 C.ar    1  UNL1        0.0012
      7 C         141.7258  136.5963  155.0647 C.ar    1  UNL1        0.2216
      8 N         142.3804  137.7909  154.4368 N.ar    1  UNL1       -0.2120
      9 C         142.4242  139.0963  155.1745 C.ar    1  UNL1        0.1048
     10 C         141.8134  139.2069  156.5400 C.ar    1  UNL1        0.0551
     11 C         141.8573  140.5124  157.2776 C.ar    1  UNL1        0.0061
     12 C         141.2464  140.6231  158.6432 C.ar    1  UNL1        0.0179
     13 C         140.5918  139.4283  159.2710 C.ar    1  UNL1        0.0829
     14 N         140.5479  138.1230  158.5334 N.ar    1  UNL1       -0.2264
     15 C         141.1588  138.0123  157.1679 C.ar    1  UNL1        0.1666
     16 N         141.1149  136.7070  156.4302 N.ar    1  UNL1       -0.1945
     17 C         141.5504  131.3748  152.1142 C.3     1  UNL1        0.0897
     18 N         141.5942  132.6801  152.8518 N.3     1  UNL1       -0.2686
     19 C         141.6873  133.9691  152.0903 C.3     1  UNL1        0.0939
     20 C         141.7311  135.2745  152.8280 C.3     1  UNL1        0.1109
     21 N         141.6819  135.2909  154.3270 N.pl3   1  UNL1       -0.2753
     22 C         141.5889  134.0019  155.0885 C.3     1  UNL1        0.1109
     23 C         141.5450  132.6966  154.3510 C.3     1  UNL1        0.0939
     24 C         141.2903  141.9284  159.3808 C.ar    1  UNL1        0.0015
     25 C         140.1805  142.9233  159.2113 C.ar    1  UNL1        0.0000
     26 C         140.2244  144.2286  159.9489 C.ar    1  UNL1        0.0000
     27 C         141.3779  144.5391  160.8561 C.ar    1  UNL1        0.0000
     28 C         142.4875  143.5442  161.0257 C.ar    1  UNL1        0.0000
     29 C         142.4438  142.2388  160.2880 C.ar    1  UNL1        0.0000
     30 C         138.1484  139.8711  164.7331 C.3     1  UNL1        0.0991
     31 N         138.9583  140.4086  165.8757 N.3     1  UNL1       -0.2689
     32 C         139.5719  141.7742  165.7830 C.3     1  UNL1        0.0728
     33 C         140.3818  142.3116  166.9256 C.3     1  UNL1        0.0249
     34 C         140.5779  141.4834  168.1607 C.3     1  UNL1        0.0613
     35 C         139.9643  140.1178  168.2533 C.3     1  UNL1        0.0249
     36 C         139.1545  139.5804  167.1108 C.3     1  UNL1        0.0728
     37 C         141.3877  142.0208  169.3032 C.ar    1  UNL1        0.1397
     38 N         141.0683  141.8649  170.7605 N.ar    1  UNL1       -0.1335
     39 N         142.1423  142.5562  171.5471 N.ar    1  UNL1       -0.1261
     40 C         143.1255  143.1394  170.5758 C.ar    1  UNL1        0.1990
     41 N         142.6591  142.8085  169.1891 N.ar    1  UNL1       -0.3221
     42 H         143.1086  143.0636  168.3511 H       1  UNL1        0.1687
     43 C         144.3586  143.9170  170.9293 C.ar    1  UNL1        0.1988
     44 N         145.6965  143.4768  170.4133 N.ar    1  UNL1       -0.2224
     45 C         146.9295  144.2544  170.7667 C.ar    1  UNL1        0.1023
     46 C         146.8247  145.4721  171.6362 C.ar    1  UNL1        0.0414
     47 C         145.4867  145.9123  172.1523 C.ar    1  UNL1        0.1023
     48 N         144.2538  145.1348  171.7988 N.ar    1  UNL1       -0.2224
@<TRIPOS>BOND
     1    17    18    1
     2    18    19    1
     3    19    20    1
     4    20    21    1
     5    21     7    1
     6     7     8   ar
     7     8     9   ar
     8     9    10   ar
     9    10    11   ar
    10    11    12   ar
    11    12    24    1
    12    24    25   ar
    13    25    26   ar
    14    26    27   ar
    15    27    28   ar
    16    28    29   ar
    17    12    13   ar
    18    13     1    1
    19     1     2   ar
    20     2     3   ar
    21     3     4   ar
    22     4    30    1
    23    30    31    1
    24    31    32    1
    25    32    33    1
    26    33    34    1
    27    34    37    1
    28    37    38   ar
    29    38    39   ar
    30    39    40   ar
    31    40    43    1
    32    43    44   ar
    33    44    45   ar
    34    45    46   ar
    35    46    47   ar
    36    47    48   ar
    37    40    41   ar
    38    34    35    1
    39    35    36    1
    40     4     5   ar
    41     5     6   ar
    42    13    14   ar
    43    14    15   ar
    44    15    16   ar
    45    21    22    1
    46    22    23    1
    47    23    18    1
    48    16     7   ar
    49    15    10   ar
    50    29    24   ar
    51     6     1   ar
    52    36    31    1
    53    41    37   ar
    54    48    43   ar
    55    41    42    1
