@<TRIPOS>MOLECULE
*****
 35 38 0 0 0
SMALL
GASTEIGER

@<TRIPOS>ATOM
      1 O         138.4276  138.0920  162.3668 O.2     1  UNL1       -0.2241
      2 C         138.5296  138.9561  163.5887 C.2     1  UNL1        0.4287
      3 N         139.6650  138.7645  164.5501 N.am    1  UNL1       -0.1210
      4 S         139.7669  139.6285  165.7720 S.O2    1  UNL1        0.0814
      5 O         138.9026  138.6627  166.5271 O.2     1  UNL1       -0.1496
      6 O         140.6313  140.5943  165.0169 O.2     1  UNL1       -0.1496
      7 C         139.8689  140.4926  166.9939 C.ar    1  UNL1        0.1257
      8 C         139.3901  139.9775  168.3188 C.ar    1  UNL1        0.0211
      9 C         139.4921  140.8416  169.5406 C.ar    1  UNL1        0.0128
     10 C         140.0729  142.2207  169.4376 C.ar    1  UNL1        0.0578
     11 CL        140.1749  143.0848  170.6595 Cl      1  UNL1       -0.0822
     12 C         140.5517  142.7358  168.1127 C.ar    1  UNL1        0.0128
     13 C         140.4497  141.8718  166.8908 C.ar    1  UNL1        0.0211
     14 O         137.4962  140.0116  163.8492 O.3     1  UNL1       -0.4091
     15 C         137.7427  141.4260  163.4143 C.ar    1  UNL1        0.1503
     16 C         137.7287  142.5345  164.4247 C.ar    1  UNL1        0.0408
     17 C         137.9751  143.9487  163.9899 C.ar    1  UNL1        0.0400
     18 C         138.2355  144.2545  162.5446 C.ar    1  UNL1        0.1393
     19 C         138.2495  143.1460  161.5342 C.ar    1  UNL1        0.0400
     20 C         138.0031  141.7317  161.9691 C.ar    1  UNL1        0.0408
     21 O         138.4820  145.6688  162.1098 O.3     1  UNL1       -0.4706
     22 C         139.8865  146.1758  161.9676 C.3     1  UNL1        0.2320
     23 C         141.0436  145.2872  162.3163 C.ar    1  UNL1        0.0212
     24 C         141.5307  145.2112  163.7329 C.ar    1  UNL1       -0.0007
     25 C         142.6878  144.3226  164.0814 C.ar    1  UNL1       -0.0002
     26 C         143.3577  143.5099  163.0134 C.ar    1  UNL1       -0.0000
     27 C         142.8705  143.5858  161.5968 C.ar    1  UNL1       -0.0002
     28 C         141.7135  144.4745  161.2482 C.ar    1  UNL1       -0.0007
     29 C         140.6983  137.7089  164.2896 C.3     1  UNL1        0.1485
     30 C         141.8333  137.9864  163.3490 C.ar    1  UNL1       -0.0004
     31 C         141.7232  137.5961  161.9048 C.ar    1  UNL1       -0.0026
     32 C         142.8582  137.8737  160.9643 C.ar    1  UNL1       -0.0003
     33 C         144.1034  138.5415  161.4679 C.ar    1  UNL1       -0.0000
     34 C         144.2135  138.9318  162.9120 C.ar    1  UNL1       -0.0003
     35 C         143.0785  138.6543  163.8526 C.ar    1  UNL1       -0.0026
@<TRIPOS>BOND
     1     1     2    2
     2     2    14    1
     3    14    15    1
     4    15    16   ar
     5    16    17   ar
     6    17    18   ar
     7    18    21    1
     8    21    22    1
     9    22    23    1
    10    23    24   ar
    11    24    25   ar
    12    25    26   ar
    13    26    27   ar
    14    27    28   ar
    15    18    19   ar
    16    19    20   ar
    17     2     3   am
    18     3    29    1
    19    29    30    1
    20    30    31   ar
    21    31    32   ar
    22    32    33   ar
    23    33    34   ar
    24    34    35   ar
    25     3     4    1
    26     4     5    2
    27     4     6    2
    28     4     7    1
    29     7     8   ar
    30     8     9   ar
    31     9    10   ar
    32    10    11    1
    33    10    12   ar
    34    12    13   ar
    35    20    15   ar
    36    35    30   ar
    37    13     7   ar
    38    28    23   ar
@<TRIPOS>MOLECULE
*****
 35 38 0 0 0
SMALL
GASTEIGER

@<TRIPOS>ATOM
      1 O         144.0861  137.7136  167.0148 O.2     1  UNL1       -0.2241
      2 C         143.5505  138.8527  166.1990 C.2     1  UNL1        0.4287
      3 N         142.8364  139.9870  166.8725 N.am    1  UNL1       -0.1210
      4 S         142.3008  141.1261  166.0567 S.O2    1  UNL1        0.0814
      5 O         143.6388  141.8010  166.1205 O.2     1  UNL1       -0.1496
      6 O         140.9627  140.4512  165.9928 O.2     1  UNL1       -0.1496
      7 C         141.7651  142.2652  165.2409 C.ar    1  UNL1        0.1257
      8 C         140.6335  143.0974  165.7669 C.ar    1  UNL1        0.0211
      9 C         140.0979  144.2365  164.9511 C.ar    1  UNL1        0.0128
     10 C         140.6939  144.5434  163.6092 C.ar    1  UNL1        0.0578
     11 CL        140.1583  145.6824  162.7934 Cl      1  UNL1       -0.0822
     12 C         141.8255  143.7111  163.0831 C.ar    1  UNL1        0.0128
     13 C         142.3612  142.5720  163.8989 C.ar    1  UNL1        0.0211
     14 O         143.7289  138.8576  164.7096 O.3     1  UNL1       -0.4091
     15 C         142.5564  138.5905  163.8129 C.ar    1  UNL1        0.1503
     16 C         142.4792  139.2436  162.4648 C.ar    1  UNL1        0.0408
     17 C         141.3067  138.9766  161.5681 C.ar    1  UNL1        0.0400
     18 C         140.2115  138.0564  162.0196 C.ar    1  UNL1        0.1393
     19 C         140.2887  137.4034  163.3678 C.ar    1  UNL1        0.0400
     20 C         141.4611  137.6704  164.2644 C.ar    1  UNL1        0.0408
     21 O         139.0390  137.7894  161.1229 O.3     1  UNL1       -0.4706
     22 C         137.7672  138.5646  161.3004 C.3     1  UNL1        0.2320
     23 C         137.8199  140.0285  161.6234 C.ar    1  UNL1        0.0212
     24 C         138.1687  141.0205  160.5537 C.ar    1  UNL1       -0.0007
     25 C         138.2214  142.4843  160.8767 C.ar    1  UNL1       -0.0002
     26 C         137.9254  142.9561  162.2695 C.ar    1  UNL1       -0.0000
     27 C         137.5767  141.9642  163.3392 C.ar    1  UNL1       -0.0002
     28 C         137.5240  140.5004  163.0161 C.ar    1  UNL1       -0.0007
     29 C         142.6580  139.9821  168.3618 C.3     1  UNL1        0.1485
     30 C         141.7655  140.9964  169.0136 C.ar    1  UNL1       -0.0004
     31 C         140.3631  140.6260  169.3959 C.ar    1  UNL1       -0.0026
     32 C         139.4707  141.6402  170.0476 C.ar    1  UNL1       -0.0003
     33 C         139.9806  143.0249  170.3170 C.ar    1  UNL1       -0.0000
     34 C         141.3829  143.3954  169.9348 C.ar    1  UNL1       -0.0003
     35 C         142.2754  142.3811  169.2830 C.ar    1  UNL1       -0.0026
@<TRIPOS>BOND
     1     1     2    2
     2     2    14    1
     3    14    15    1
     4    15    16   ar
     5    16    17   ar
     6    17    18   ar
     7    18    21    1
     8    21    22    1
     9    22    23    1
    10    23    24   ar
    11    24    25   ar
    12    25    26   ar
    13    26    27   ar
    14    27    28   ar
    15    18    19   ar
    16    19    20   ar
    17     2     3   am
    18     3    29    1
    19    29    30    1
    20    30    31   ar
    21    31    32   ar
    22    32    33   ar
    23    33    34   ar
    24    34    35   ar
    25     3     4    1
    26     4     5    2
    27     4     6    2
    28     4     7    1
    29     7     8   ar
    30     8     9   ar
    31     9    10   ar
    32    10    11    1
    33    10    12   ar
    34    12    13   ar
    35    20    15   ar
    36    35    30   ar
    37    13     7   ar
    38    28    23   ar
@<TRIPOS>MOLECULE
*****
 35 38 0 0 0
SMALL
GASTEIGER

@<TRIPOS>ATOM
      1 O         137.3625  138.6523  166.9234 O.2     1  UNL1       -0.2241
      2 C         138.5996  139.0568  166.1778 C.2     1  UNL1        0.4287
      3 N         139.6944  139.7974  166.8872 N.am    1  UNL1       -0.1210
      4 S         140.9315  140.2019  166.1416 S.O2    1  UNL1        0.0814
      5 O         141.5015  138.8291  166.3427 O.2     1  UNL1       -0.1496
      6 O         140.3614  141.5747  165.9406 O.2     1  UNL1       -0.1496
      7 C         142.1686  140.6064  165.3960 C.ar    1  UNL1        0.1257
      8 C         142.9583  141.8000  165.8451 C.ar    1  UNL1        0.0211
      9 C         144.1954  142.2045  165.0995 C.ar    1  UNL1        0.0128
     10 C         144.6428  141.4155  163.9048 C.ar    1  UNL1        0.0578
     11 CL        145.8799  141.8200  163.1592 Cl      1  UNL1       -0.0822
     12 C         143.8531  140.2218  163.4557 C.ar    1  UNL1        0.0128
     13 C         142.6160  139.8173  164.2013 C.ar    1  UNL1        0.0211
     14 O         138.7420  138.7209  164.7229 O.3     1  UNL1       -0.4091
     15 C         138.6551  139.8058  163.6906 C.ar    1  UNL1        0.1503
     16 C         137.7899  141.0064  163.9354 C.ar    1  UNL1        0.0408
     17 C         137.7031  142.0912  162.9031 C.ar    1  UNL1        0.0400
     18 C         138.4814  141.9753  161.6261 C.ar    1  UNL1        0.1393
     19 C         139.3465  140.7747  161.3813 C.ar    1  UNL1        0.0400
     20 C         139.4334  139.6899  162.4136 C.ar    1  UNL1        0.0408
     21 O         138.3945  143.0602  160.5938 O.3     1  UNL1       -0.4706
     22 C         139.6220  143.8342  160.2141 C.3     1  UNL1        0.2320
     23 C         140.6184  144.2234  161.2656 C.ar    1  UNL1        0.0212
     24 C         140.1876  145.0590  162.4345 C.ar    1  UNL1       -0.0007
     25 C         141.1840  145.4481  163.4860 C.ar    1  UNL1       -0.0002
     26 C         142.6112  145.0017  163.3686 C.ar    1  UNL1       -0.0000
     27 C         143.0420  144.1662  162.1997 C.ar    1  UNL1       -0.0002
     28 C         142.0456  143.7771  161.1483 C.ar    1  UNL1       -0.0007
     29 C         139.5520  140.1334  168.3421 C.3     1  UNL1        0.1485
     30 C         140.5723  141.0034  169.0142 C.ar    1  UNL1       -0.0004
     31 C         141.8792  140.4184  169.4614 C.ar    1  UNL1       -0.0026
     32 C         142.8996  141.2885  170.1335 C.ar    1  UNL1       -0.0003
     33 C         142.6132  142.7436  170.3585 C.ar    1  UNL1       -0.0000
     34 C         141.3064  143.3286  169.9114 C.ar    1  UNL1       -0.0003
     35 C         140.2859  142.4585  169.2392 C.ar    1  UNL1       -0.0026
@<TRIPOS>BOND
     1     1     2    2
     2     2    14    1
     3    14    15    1
     4    15    16   ar
     5    16    17   ar
     6    17    18   ar
     7    18    21    1
     8    21    22    1
     9    22    23    1
    10    23    24   ar
    11    24    25   ar
    12    25    26   ar
    13    26    27   ar
    14    27    28   ar
    15    18    19   ar
    16    19    20   ar
    17     2     3   am
    18     3    29    1
    19    29    30    1
    20    30    31   ar
    21    31    32   ar
    22    32    33   ar
    23    33    34   ar
    24    34    35   ar
    25     3     4    1
    26     4     5    2
    27     4     6    2
    28     4     7    1
    29     7     8   ar
    30     8     9   ar
    31     9    10   ar
    32    10    11    1
    33    10    12   ar
    34    12    13   ar
    35    20    15   ar
    36    35    30   ar
    37    13     7   ar
    38    28    23   ar
@<TRIPOS>MOLECULE
*****
 35 38 0 0 0
SMALL
GASTEIGER

@<TRIPOS>ATOM
      1 O         137.4326  138.7162  166.7797 O.2     1  UNL1       -0.2241
      2 C         138.3310  139.6467  166.0200 C.2     1  UNL1        0.4287
      3 N         139.4337  140.3726  166.7321 N.am    1  UNL1       -0.1210
      4 S         140.3320  141.3031  165.9724 S.O2    1  UNL1        0.0814
      5 O         139.2863  142.3757  166.0496 O.2     1  UNL1       -0.1496
      6 O         141.3777  140.2304  165.8952 O.2     1  UNL1       -0.1496
      7 C         141.2304  142.2335  165.2126 C.ar    1  UNL1        0.1257
      8 C         140.7855  142.7966  163.8955 C.ar    1  UNL1        0.0211
      9 C         141.6839  143.7271  163.1357 C.ar    1  UNL1        0.0128
     10 C         143.0271  144.0944  163.6931 C.ar    1  UNL1        0.0578
     11 CL        143.9254  145.0249  162.9334 Cl      1  UNL1       -0.0822
     12 C         143.4720  143.5313  165.0104 C.ar    1  UNL1        0.0128
     13 C         142.5737  142.6009  165.7701 C.ar    1  UNL1        0.0211
     14 O         138.1267  139.8511  164.5481 O.3     1  UNL1       -0.4091
     15 C         139.0820  139.2399  163.5662 C.ar    1  UNL1        0.1503
     16 C         139.3404  139.9147  162.2518 C.ar    1  UNL1        0.0408
     17 C         140.2956  139.3035  161.2700 C.ar    1  UNL1        0.0400
     18 C         140.9924  138.0175  161.6027 C.ar    1  UNL1        0.1393
     19 C         140.7340  137.3427  162.9172 C.ar    1  UNL1        0.0400
     20 C         139.7788  137.9539  163.8989 C.ar    1  UNL1        0.0408
     21 O         141.9477  137.4063  160.6208 O.3     1  UNL1       -0.4706
     22 C         143.4208  137.6557  160.7530 C.3     1  UNL1        0.2320
     23 C         143.9150  138.8211  161.5579 C.ar    1  UNL1        0.0212
     24 C         144.2285  138.6476  163.0145 C.ar    1  UNL1       -0.0007
     25 C         144.7226  139.8129  163.8193 C.ar    1  UNL1       -0.0002
     26 C         144.9032  141.1518  163.1675 C.ar    1  UNL1       -0.0000
     27 C         144.5898  141.3253  161.7110 C.ar    1  UNL1       -0.0002
     28 C         144.0957  140.1600  160.9062 C.ar    1  UNL1       -0.0007
     29 C         139.6380  140.1681  168.2040 C.3     1  UNL1        0.1485
     30 C         140.6453  140.9976  168.9437 C.ar    1  UNL1       -0.0004
     31 C         141.9872  140.4202  169.2846 C.ar    1  UNL1       -0.0026
     32 C         142.9946  141.2496  170.0243 C.ar    1  UNL1       -0.0003
     33 C         142.6602  142.6564  170.4231 C.ar    1  UNL1       -0.0000
     34 C         141.3184  143.2338  170.0822 C.ar    1  UNL1       -0.0003
     35 C         140.3110  142.4044  169.3425 C.ar    1  UNL1       -0.0026
@<TRIPOS>BOND
     1     1     2    2
     2     2    14    1
     3    14    15    1
     4    15    16   ar
     5    16    17   ar
     6    17    18   ar
     7    18    21    1
     8    21    22    1
     9    22    23    1
    10    23    24   ar
    11    24    25   ar
    12    25    26   ar
    13    26    27   ar
    14    27    28   ar
    15    18    19   ar
    16    19    20   ar
    17     2     3   am
    18     3    29    1
    19    29    30    1
    20    30    31   ar
    21    31    32   ar
    22    32    33   ar
    23    33    34   ar
    24    34    35   ar
    25     3     4    1
    26     4     5    2
    27     4     6    2
    28     4     7    1
    29     7     8   ar
    30     8     9   ar
    31     9    10   ar
    32    10    11    1
    33    10    12   ar
    34    12    13   ar
    35    20    15   ar
    36    35    30   ar
    37    13     7   ar
    38    28    23   ar
@<TRIPOS>MOLECULE
*****
 35 38 0 0 0
SMALL
GASTEIGER

@<TRIPOS>ATOM
      1 O         145.8117  142.0516  162.1003 O.2     1  UNL1       -0.2241
      2 C         145.0505  141.8636  163.3791 C.2     1  UNL1        0.4287
      3 N         144.1417  142.9481  163.8773 N.am    1  UNL1       -0.1210
      4 S         143.3805  142.7601  165.1561 S.O2    1  UNL1        0.0814
      5 O         144.5293  143.3419  165.9254 O.2     1  UNL1       -0.1496
      6 O         142.2318  142.1783  164.3868 O.2     1  UNL1       -0.1496
      7 C         142.6194  142.5721  166.4349 C.ar    1  UNL1        0.1257
      8 C         143.3580  142.4044  167.7296 C.ar    1  UNL1        0.0211
      9 C         142.5968  142.2165  169.0084 C.ar    1  UNL1        0.0128
     10 C         141.0970  142.1962  168.9924 C.ar    1  UNL1        0.0578
     11 CL        140.3359  142.0082  170.2712 Cl      1  UNL1       -0.0822
     12 C         140.3584  142.3639  167.6977 C.ar    1  UNL1        0.0128
     13 C         141.1195  142.5519  166.4189 C.ar    1  UNL1        0.0211
     14 O         145.1981  140.5913  164.1597 O.3     1  UNL1       -0.4091
     15 C         144.0413  139.6433  164.2745 C.ar    1  UNL1        0.1503
     16 C         143.3329  139.1714  163.0395 C.ar    1  UNL1        0.0408
     17 C         142.1762  138.2234  163.1543 C.ar    1  UNL1        0.0400
     18 C         141.7277  137.7475  164.5043 C.ar    1  UNL1        0.1393
     19 C         142.4361  138.2194  165.7394 C.ar    1  UNL1        0.0400
     20 C         143.5929  139.1674  165.6245 C.ar    1  UNL1        0.0408
     21 O         140.5709  136.7995  164.6191 O.3     1  UNL1       -0.4706
     22 C         139.2128  137.3153  164.9925 C.3     1  UNL1        0.2320
     23 C         138.7246  138.6177  164.4307 C.ar    1  UNL1        0.0212
     24 C         138.4102  138.7330  162.9686 C.ar    1  UNL1       -0.0007
     25 C         137.9220  140.0353  162.4069 C.ar    1  UNL1       -0.0002
     26 C         137.7483  141.2224  163.3073 C.ar    1  UNL1       -0.0000
     27 C         138.0628  141.1071  164.7694 C.ar    1  UNL1       -0.0002
     28 C         138.5509  139.8047  165.3311 C.ar    1  UNL1       -0.0007
     29 C         143.9941  144.2204  163.0967 C.3     1  UNL1        0.1485
     30 C         142.6981  144.5323  162.4091 C.ar    1  UNL1       -0.0004
     31 C         141.6849  145.4110  163.0810 C.ar    1  UNL1       -0.0026
     32 C         140.3889  145.7229  162.3934 C.ar    1  UNL1       -0.0003
     33 C         140.1059  145.1561  161.0337 C.ar    1  UNL1       -0.0000
     34 C         141.1189  144.2774  160.3618 C.ar    1  UNL1       -0.0003
     35 C         142.4150  143.9655  161.0494 C.ar    1  UNL1       -0.0026
@<TRIPOS>BOND
     1     1     2    2
     2     2    14    1
     3    14    15    1
     4    15    16   ar
     5    16    17   ar
     6    17    18   ar
     7    18    21    1
     8    21    22    1
     9    22    23    1
    10    23    24   ar
    11    24    25   ar
    12    25    26   ar
    13    26    27   ar
    14    27    28   ar
    15    18    19   ar
    16    19    20   ar
    17     2     3   am
    18     3    29    1
    19    29    30    1
    20    30    31   ar
    21    31    32   ar
    22    32    33   ar
    23    33    34   ar
    24    34    35   ar
    25     3     4    1
    26     4     5    2
    27     4     6    2
    28     4     7    1
    29     7     8   ar
    30     8     9   ar
    31     9    10   ar
    32    10    11    1
    33    10    12   ar
    34    12    13   ar
    35    20    15   ar
    36    35    30   ar
    37    13     7   ar
    38    28    23   ar
@<TRIPOS>MOLECULE
*****
 35 38 0 0 0
SMALL
GASTEIGER

@<TRIPOS>ATOM
      1 O         139.3223  139.6735  167.5298 O.2     1  UNL1       -0.2241
      2 C         139.6117  139.6120  166.0593 C.2     1  UNL1        0.4287
      3 N         140.9889  139.2602  165.5800 N.am    1  UNL1       -0.1210
      4 S         141.2784  139.1987  164.1095 S.O2    1  UNL1        0.0814
      5 O         140.8571  137.7593  164.0867 O.2     1  UNL1       -0.1496
      6 O         141.6997  140.6381  164.1323 O.2     1  UNL1       -0.1496
      7 C         141.5678  139.1373  162.6390 C.ar    1  UNL1        0.1257
      8 C         141.2922  140.3283  161.7699 C.ar    1  UNL1        0.0211
      9 C         141.5817  140.2669  160.2994 C.ar    1  UNL1        0.0128
     10 C         142.1467  139.0143  159.6979 C.ar    1  UNL1        0.0578
     11 CL        142.4362  138.9529  158.2274 Cl      1  UNL1       -0.0822
     12 C         142.4224  137.8232  160.5670 C.ar    1  UNL1        0.0128
     13 C         142.1329  137.8846  162.0375 C.ar    1  UNL1        0.0211
     14 O         138.5241  139.9024  165.0680 O.3     1  UNL1       -0.4091
     15 C         138.4709  141.2352  164.3818 C.ar    1  UNL1        0.1503
     16 C         138.8458  142.4797  165.1306 C.ar    1  UNL1        0.0408
     17 C         138.7926  143.8125  164.4444 C.ar    1  UNL1        0.0400
     18 C         138.3646  143.9007  163.0095 C.ar    1  UNL1        0.1393
     19 C         137.9897  142.6562  162.2607 C.ar    1  UNL1        0.0400
     20 C         138.0428  141.3235  162.9469 C.ar    1  UNL1        0.0408
     21 O         138.3114  145.2336  162.3233 O.3     1  UNL1       -0.4706
     22 C         139.5815  145.9696  162.0150 C.3     1  UNL1        0.2320
     23 C         140.9051  145.2835  162.1806 C.ar    1  UNL1        0.0212
     24 C         141.7097  145.4971  163.4283 C.ar    1  UNL1       -0.0007
     25 C         143.0332  144.8110  163.5938 C.ar    1  UNL1       -0.0002
     26 C         143.5521  143.9112  162.5116 C.ar    1  UNL1       -0.0000
     27 C         142.7475  143.6976  161.2639 C.ar    1  UNL1       -0.0002
     28 C         141.4240  144.3837  161.0984 C.ar    1  UNL1       -0.0007
     29 C         142.0766  138.9698  166.5713 C.3     1  UNL1        0.1485
     30 C         142.4893  140.0190  167.5606 C.ar    1  UNL1       -0.0004
     31 C         142.7895  141.4128  167.0943 C.ar    1  UNL1       -0.0026
     32 C         143.2023  142.4620  168.0836 C.ar    1  UNL1       -0.0003
     33 C         143.3148  142.1175  169.5392 C.ar    1  UNL1       -0.0000
     34 C         143.0146  140.7238  170.0055 C.ar    1  UNL1       -0.0003
     35 C         142.6018  139.6745  169.0162 C.ar    1  UNL1       -0.0026
@<TRIPOS>BOND
     1     1     2    2
     2     2    14    1
     3    14    15    1
     4    15    16   ar
     5    16    17   ar
     6    17    18   ar
     7    18    21    1
     8    21    22    1
     9    22    23    1
    10    23    24   ar
    11    24    25   ar
    12    25    26   ar
    13    26    27   ar
    14    27    28   ar
    15    18    19   ar
    16    19    20   ar
    17     2     3   am
    18     3    29    1
    19    29    30    1
    20    30    31   ar
    21    31    32   ar
    22    32    33   ar
    23    33    34   ar
    24    34    35   ar
    25     3     4    1
    26     4     5    2
    27     4     6    2
    28     4     7    1
    29     7     8   ar
    30     8     9   ar
    31     9    10   ar
    32    10    11    1
    33    10    12   ar
    34    12    13   ar
    35    20    15   ar
    36    35    30   ar
    37    13     7   ar
    38    28    23   ar
@<TRIPOS>MOLECULE
*****
 35 38 0 0 0
SMALL
GASTEIGER

@<TRIPOS>ATOM
      1 O         138.4677  138.5989  163.7342 O.2     1  UNL1       -0.2241
      2 C         138.9791  139.5045  164.8150 C.2     1  UNL1        0.4287
      3 N         140.3029  139.2256  165.4632 N.am    1  UNL1       -0.1210
      4 S         140.8143  140.1313  166.5440 S.O2    1  UNL1        0.0814
      5 O         140.0717  139.3269  167.5695 O.2     1  UNL1       -0.1496
      6 O         141.5569  140.9356  165.5185 O.2     1  UNL1       -0.1496
      7 C         141.3258  141.0370  167.6248 C.ar    1  UNL1        0.1257
      8 C         142.7555  140.9420  168.0687 C.ar    1  UNL1        0.0211
      9 C         143.2670  141.8477  169.1495 C.ar    1  UNL1        0.0128
     10 C         142.3488  142.8483  169.7864 C.ar    1  UNL1        0.0578
     11 CL        142.8603  143.7540  170.8672 Cl      1  UNL1       -0.0822
     12 C         140.9191  142.9433  169.3425 C.ar    1  UNL1        0.0128
     13 C         140.4076  142.0376  168.2617 C.ar    1  UNL1        0.0211
     14 O         138.1670  140.6891  165.2476 O.3     1  UNL1       -0.4091
     15 C         138.2440  141.9733  164.4763 C.ar    1  UNL1        0.1503
     16 C         138.8043  143.2048  165.1241 C.ar    1  UNL1        0.0408
     17 C         138.8813  144.4889  164.3528 C.ar    1  UNL1        0.0400
     18 C         138.3981  144.5417  162.9338 C.ar    1  UNL1        0.1393
     19 C         137.8378  143.3102  162.2860 C.ar    1  UNL1        0.0400
     20 C         137.7608  142.0261  163.0573 C.ar    1  UNL1        0.0408
     21 O         138.4751  145.8259  162.1625 O.3     1  UNL1       -0.4706
     22 C         139.7874  146.2851  161.5994 C.3     1  UNL1        0.2320
     23 C         140.8415  145.2806  161.2390 C.ar    1  UNL1        0.0212
     24 C         140.8837  144.7011  159.8561 C.ar    1  UNL1       -0.0007
     25 C         141.9378  143.6966  159.4957 C.ar    1  UNL1       -0.0002
     26 C         142.9497  143.2717  160.5183 C.ar    1  UNL1       -0.0000
     27 C         142.9075  143.8511  161.9011 C.ar    1  UNL1       -0.0002
     28 C         141.8534  144.8556  162.2615 C.ar    1  UNL1       -0.0007
     29 C         141.1150  138.0411  165.0306 C.3     1  UNL1        0.1485
     30 C         141.9771  138.1296  163.8063 C.ar    1  UNL1       -0.0004
     31 C         143.3376  138.7558  163.8907 C.ar    1  UNL1       -0.0026
     32 C         144.1997  138.8443  162.6664 C.ar    1  UNL1       -0.0003
     33 C         143.7013  138.3067  161.3577 C.ar    1  UNL1       -0.0000
     34 C         142.3409  137.6806  161.2733 C.ar    1  UNL1       -0.0003
     35 C         141.4788  137.5920  162.4976 C.ar    1  UNL1       -0.0026
@<TRIPOS>BOND
     1     1     2    2
     2     2    14    1
     3    14    15    1
     4    15    16   ar
     5    16    17   ar
     6    17    18   ar
     7    18    21    1
     8    21    22    1
     9    22    23    1
    10    23    24   ar
    11    24    25   ar
    12    25    26   ar
    13    26    27   ar
    14    27    28   ar
    15    18    19   ar
    16    19    20   ar
    17     2     3   am
    18     3    29    1
    19    29    30    1
    20    30    31   ar
    21    31    32   ar
    22    32    33   ar
    23    33    34   ar
    24    34    35   ar
    25     3     4    1
    26     4     5    2
    27     4     6    2
    28     4     7    1
    29     7     8   ar
    30     8     9   ar
    31     9    10   ar
    32    10    11    1
    33    10    12   ar
    34    12    13   ar
    35    20    15   ar
    36    35    30   ar
    37    13     7   ar
    38    28    23   ar
@<TRIPOS>MOLECULE
*****
 35 38 0 0 0
SMALL
GASTEIGER

@<TRIPOS>ATOM
      1 O         137.3744  140.1782  161.3178 O.2     1  UNL1       -0.2241
      2 C         138.0865  140.3102  162.6314 C.2     1  UNL1        0.4287
      3 N         139.0245  139.2323  163.0877 N.am    1  UNL1       -0.1210
      4 S         139.7366  139.3643  164.4013 S.O2    1  UNL1        0.0814
      5 O         140.8787  140.0514  163.7131 O.2     1  UNL1       -0.1496
      6 O         138.5945  138.6772  165.0894 O.2     1  UNL1       -0.1496
      7 C         140.4487  139.4964  165.7148 C.ar    1  UNL1        0.1257
      8 C         139.6981  139.9468  166.9329 C.ar    1  UNL1        0.0211
      9 C         140.4101  140.0789  168.2465 C.ar    1  UNL1        0.0128
     10 C         141.8728  139.7604  168.3420 C.ar    1  UNL1        0.0578
     11 CL        142.5848  139.8925  169.6556 Cl      1  UNL1       -0.0822
     12 C         142.6235  139.3099  167.1240 C.ar    1  UNL1        0.0128
     13 C         141.9114  139.1779  165.8104 C.ar    1  UNL1        0.0211
     14 O         137.8605  141.5201  163.4887 O.3     1  UNL1       -0.4091
     15 C         138.9359  142.5577  163.6201 C.ar    1  UNL1        0.1503
     16 C         139.3622  143.0281  164.9791 C.ar    1  UNL1        0.0408
     17 C         140.4374  144.0656  165.1105 C.ar    1  UNL1        0.0400
     18 C         141.0864  144.6327  163.8828 C.ar    1  UNL1        0.1393
     19 C         140.6601  144.1624  162.5238 C.ar    1  UNL1        0.0400
     20 C         139.5848  143.1249  162.3924 C.ar    1  UNL1        0.0408
     21 O         142.1618  145.6703  164.0142 O.3     1  UNL1       -0.4706
     22 C         143.5838  145.3220  163.6881 C.3     1  UNL1        0.2320
     23 C         143.9928  143.8848  163.5563 C.ar    1  UNL1        0.0212
     24 C         144.3566  143.3289  162.2115 C.ar    1  UNL1       -0.0007
     25 C         144.7655  141.8917  162.0798 C.ar    1  UNL1       -0.0002
     26 C         144.8107  141.0106  163.2928 C.ar    1  UNL1       -0.0000
     27 C         144.4469  141.5666  164.6376 C.ar    1  UNL1       -0.0002
     28 C         144.0379  143.0037  164.7693 C.ar    1  UNL1       -0.0007
     29 C         139.2505  138.0224  162.2304 C.3     1  UNL1        0.1485
     30 C         140.2791  138.0579  161.1392 C.ar    1  UNL1       -0.0004
     31 C         141.7145  137.7538  161.4513 C.ar    1  UNL1       -0.0026
     32 C         142.7431  137.7893  160.3602 C.ar    1  UNL1       -0.0003
     33 C         142.3364  138.1289  158.9569 C.ar    1  UNL1       -0.0000
     34 C         140.9012  138.4330  158.6447 C.ar    1  UNL1       -0.0003
     35 C         139.8725  138.3975  159.7359 C.ar    1  UNL1       -0.0026
@<TRIPOS>BOND
     1     1     2    2
     2     2    14    1
     3    14    15    1
     4    15    16   ar
     5    16    17   ar
     6    17    18   ar
     7    18    21    1
     8    21    22    1
     9    22    23    1
    10    23    24   ar
    11    24    25   ar
    12    25    26   ar
    13    26    27   ar
    14    27    28   ar
    15    18    19   ar
    16    19    20   ar
    17     2     3   am
    18     3    29    1
    19    29    30    1
    20    30    31   ar
    21    31    32   ar
    22    32    33   ar
    23    33    34   ar
    24    34    35   ar
    25     3     4    1
    26     4     5    2
    27     4     6    2
    28     4     7    1
    29     7     8   ar
    30     8     9   ar
    31     9    10   ar
    32    10    11    1
    33    10    12   ar
    34    12    13   ar
    35    20    15   ar
    36    35    30   ar
    37    13     7   ar
    38    28    23   ar
@<TRIPOS>MOLECULE
*****
 35 38 0 0 0
SMALL
GASTEIGER

@<TRIPOS>ATOM
      1 O         138.4834  139.5802  158.4727 O.2     1  UNL1       -0.2241
      2 C         139.0703  139.4091  159.8424 C.2     1  UNL1        0.4287
      3 N         140.5553  139.2817  160.0115 N.am    1  UNL1       -0.1210
      4 S         141.1422  139.1106  161.3813 S.O2    1  UNL1        0.0814
      5 O         140.8857  137.6346  161.3068 O.2     1  UNL1       -0.1496
      6 O         141.3987  140.5867  161.4557 O.2     1  UNL1       -0.1496
      7 C         141.7292  138.9395  162.7510 C.ar    1  UNL1        0.1257
      8 C         143.1857  139.2129  162.9824 C.ar    1  UNL1        0.0211
      9 C         143.7727  139.0418  164.3521 C.ar    1  UNL1        0.0128
     10 C         142.9030  138.5974  165.4906 C.ar    1  UNL1        0.0578
     11 CL        143.4899  138.4263  166.8603 Cl      1  UNL1       -0.0822
     12 C         141.4463  138.3240  165.2593 C.ar    1  UNL1        0.0128
     13 C         140.8594  138.4951  163.8895 C.ar    1  UNL1        0.0211
     14 O         138.1722  139.3653  161.0431 O.3     1  UNL1       -0.4091
     15 C         138.0342  140.5739  161.9208 C.ar    1  UNL1        0.1503
     16 C         137.8066  140.4086  163.3942 C.ar    1  UNL1        0.0408
     17 C         137.6685  141.6171  164.2719 C.ar    1  UNL1        0.0400
     18 C         137.7580  142.9909  163.6762 C.ar    1  UNL1        0.1393
     19 C         137.9856  143.1561  162.2029 C.ar    1  UNL1        0.0400
     20 C         138.1237  141.9476  161.3252 C.ar    1  UNL1        0.0408
     21 O         137.6199  144.1994  164.5540 O.3     1  UNL1       -0.4706
     22 C         138.8203  144.7521  165.2636 C.3     1  UNL1        0.2320
     23 C         140.0820  143.9447  165.3436 C.ar    1  UNL1        0.0212
     24 C         141.1497  144.1168  164.3042 C.ar    1  UNL1       -0.0007
     25 C         142.4113  143.3094  164.3842 C.ar    1  UNL1       -0.0002
     26 C         142.6052  142.3299  165.5036 C.ar    1  UNL1       -0.0000
     27 C         141.5375  142.1578  166.5430 C.ar    1  UNL1       -0.0002
     28 C         140.2759  142.9652  166.4630 C.ar    1  UNL1       -0.0007
     29 C         141.4534  139.3255  158.8109 C.3     1  UNL1        0.1485
     30 C         142.1676  140.5954  158.4545 C.ar    1  UNL1       -0.0004
     31 C         141.3831  141.8144  158.0690 C.ar    1  UNL1       -0.0026
     32 C         142.0973  143.0843  157.7126 C.ar    1  UNL1       -0.0003
     33 C         143.5962  143.1353  157.7417 C.ar    1  UNL1       -0.0000
     34 C         144.3808  141.9164  158.1271 C.ar    1  UNL1       -0.0003
     35 C         143.6665  140.6464  158.4836 C.ar    1  UNL1       -0.0026
@<TRIPOS>BOND
     1     1     2    2
     2     2    14    1
     3    14    15    1
     4    15    16   ar
     5    16    17   ar
     6    17    18   ar
     7    18    21    1
     8    21    22    1
     9    22    23    1
    10    23    24   ar
    11    24    25   ar
    12    25    26   ar
    13    26    27   ar
    14    27    28   ar
    15    18    19   ar
    16    19    20   ar
    17     2     3   am
    18     3    29    1
    19    29    30    1
    20    30    31   ar
    21    31    32   ar
    22    32    33   ar
    23    33    34   ar
    24    34    35   ar
    25     3     4    1
    26     4     5    2
    27     4     6    2
    28     4     7    1
    29     7     8   ar
    30     8     9   ar
    31     9    10   ar
    32    10    11    1
    33    10    12   ar
    34    12    13   ar
    35    20    15   ar
    36    35    30   ar
    37    13     7   ar
    38    28    23   ar
