@<TRIPOS>MOLECULE
*****
 33 37 0 0 0
SMALL
GASTEIGER

@<TRIPOS>ATOM
      1 C         142.4436  141.8622  164.4570 C.ar    1  UNL1        0.1115
      2 C         143.3981  142.5424  165.3930 C.ar    1  UNL1        0.1564
      3 F         144.5736  143.2977  164.8472 F       1  UNL1       -0.2028
      4 C         143.1772  142.4673  166.8747 C.ar    1  UNL1        0.0326
      5 C         142.0018  141.7121  167.4205 C.ar    1  UNL1        0.0214
      6 C         141.7809  141.6370  168.9022 C.ar    1  UNL1        0.0075
      7 C         140.6054  140.8817  169.4480 C.ar    1  UNL1        0.0702
      8 C         139.6509  140.2015  168.5120 C.ar    1  UNL1        0.2620
      9 O         138.4754  139.4462  169.0577 O.2     1  UNL1       -0.2669
     10 N         139.8717  140.2766  167.0302 N.ar    1  UNL1       -0.2909
     11 C         141.0472  141.0318  166.4845 C.ar    1  UNL1        0.0980
     12 C         141.2680  141.1069  165.0027 C.ar    1  UNL1        0.1697
     13 O         140.3135  140.4267  164.0667 O.3     1  UNL1       -0.4707
     14 C         139.1381  139.6715  164.6125 C.3     1  UNL1        0.2279
     15 C         138.9172  139.5964  166.0942 C.3     1  UNL1        0.1321
     16 C         137.7417  138.8411  166.6400 C.3     1  UNL1        0.0285
     17 C         142.7429  143.5479  159.4168 C.3     1  UNL1        0.1171
     18 C         143.1606  142.8979  158.1311 C.3     1  UNL1        0.0310
     19 C         143.6132  141.4678  158.1261 C.3     1  UNL1        0.0180
     20 C         143.6483  140.6878  159.4068 C.3     1  UNL1        0.0526
     21 N         144.1010  139.2577  159.4019 N.3     1  UNL1       -0.3221
     22 C         143.2307  141.3378  160.6925 C.3     1  UNL1        0.0379
     23 C         143.1605  140.8245  162.1002 C.3     1  UNL1        0.0923
     24 N         142.6644  141.9373  162.9752 N.pl3   1  UNL1       -0.3032
     25 C         142.4280  143.1384  162.1083 C.3     1  UNL1        0.0934
     26 C         142.7780  142.7679  160.6975 C.3     1  UNL1        0.0499
     27 H         143.3274  138.6553  159.6831 H       1  UNL1        0.1188
     28 H         144.8756  139.1440  160.0557 H       1  UNL1        0.1188
     29 C         140.8259  145.3010  159.4548 C.3     1  UNL1        0.1740
     30 O         142.2903  144.9780  159.4218 O.3     1  UNL1       -0.3535
     31 C         140.3845  140.8066  170.9297 C.2     1  UNL1        0.0775
     32 O         139.9434  139.5178  171.5579 O.co2   1  UNL1       -0.5444
     33 O         140.6048  142.0202  171.7833 O.co2   1  UNL1       -0.5444
@<TRIPOS>UNITY_ATOM_ATTR
32 1
charge -1
@<TRIPOS>BOND
     1    29    30    1
     2    17    30    1
     3    17    18    1
     4    18    19    1
     5    19    20    1
     6    20    21    1
     7    20    22    1
     8    22    23    1
     9    23    24    1
    10    24     1    1
    11     1     2   ar
    12     2     3    1
    13     2     4   ar
    14     4     5   ar
    15     5     6   ar
    16     6     7   ar
    17     7    31    1
    18    31    32   ar
    19    31    33   ar
    20     7     8   ar
    21     8     9    2
    22     8    10   ar
    23    10    11   ar
    24    11    12   ar
    25    12    13    1
    26    13    14    1
    27    14    15    1
    28    15    16    1
    29    24    25    1
    30    26    25    1
    31    26    17    1
    32    26    22    1
    33    12     1   ar
    34    11     5   ar
    35    15    10    1
    36    21    27    1
    37    21    28    1
@<TRIPOS>MOLECULE
*****
 33 37 0 0 0
SMALL
GASTEIGER

@<TRIPOS>ATOM
      1 C         142.3973  141.8320  164.3796 C.ar    1  UNL1        0.1115
      2 C         143.3495  142.5351  165.3009 C.ar    1  UNL1        0.1564
      3 F         144.5148  143.2940  164.7385 F       1  UNL1       -0.2028
      4 C         143.1365  142.4793  166.7847 C.ar    1  UNL1        0.0326
      5 C         141.9713  141.7205  167.3471 C.ar    1  UNL1        0.0214
      6 C         141.7583  141.6648  168.8309 C.ar    1  UNL1        0.0075
      7 C         140.5930  140.9058  169.3933 C.ar    1  UNL1        0.0702
      8 C         139.6408  140.2027  168.4720 C.ar    1  UNL1        0.2620
      9 O         138.4756  139.4439  169.0344 O.2     1  UNL1       -0.2669
     10 N         139.8538  140.2585  166.9882 N.ar    1  UNL1       -0.2909
     11 C         141.0190  141.0173  166.4258 C.ar    1  UNL1        0.0980
     12 C         141.2320  141.0730  164.9420 C.ar    1  UNL1        0.1697
     13 O         140.2798  140.3699  164.0207 O.3     1  UNL1       -0.4707
     14 C         139.1146  139.6111  164.5831 C.3     1  UNL1        0.2279
     15 C         138.9016  139.5553  166.0669 C.3     1  UNL1        0.1321
     16 C         137.7363  138.7964  166.6293 C.3     1  UNL1        0.0285
     17 C         143.5511  140.5843  159.3352 C.3     1  UNL1        0.1171
     18 C         143.5213  141.3513  158.0465 C.3     1  UNL1        0.0310
     19 C         143.0928  142.7887  158.0390 C.3     1  UNL1        0.0180
     20 C         142.6940  143.4592  159.3201 C.3     1  UNL1        0.0526
     21 N         142.2655  144.8966  159.3126 N.3     1  UNL1       -0.3221
     22 C         142.7238  142.6922  160.6088 C.3     1  UNL1        0.0379
     23 C         142.3888  143.0834  162.0176 C.3     1  UNL1        0.0923
     24 N         142.6103  141.8877  162.8959 N.pl3   1  UNL1       -0.3032
     25 C         143.0822  140.7576  162.0298 C.3     1  UNL1        0.0934
     26 C         143.1524  141.2547  160.6163 C.3     1  UNL1        0.0499
     27 H         142.9274  145.4516  159.8550 H       1  UNL1        0.1188
     28 H         141.3362  144.9766  159.7256 H       1  UNL1        0.1188
     29 C         142.9547  138.0593  159.4717 C.3     1  UNL1        0.1740
     30 O         143.9797  139.1468  159.3427 O.3     1  UNL1       -0.3535
     31 C         140.3800  140.8501  170.8771 C.2     1  UNL1        0.0775
     32 O         139.8960  139.5833  171.5182 O.co2   1  UNL1       -0.5444
     33 O         140.6509  142.0611  171.7197 O.co2   1  UNL1       -0.5444
@<TRIPOS>UNITY_ATOM_ATTR
32 1
charge -1
@<TRIPOS>BOND
     1    29    30    1
     2    17    30    1
     3    17    18    1
     4    18    19    1
     5    19    20    1
     6    20    21    1
     7    20    22    1
     8    22    23    1
     9    23    24    1
    10    24     1    1
    11     1     2   ar
    12     2     3    1
    13     2     4   ar
    14     4     5   ar
    15     5     6   ar
    16     6     7   ar
    17     7    31    1
    18    31    32   ar
    19    31    33   ar
    20     7     8   ar
    21     8     9    2
    22     8    10   ar
    23    10    11   ar
    24    11    12   ar
    25    12    13    1
    26    13    14    1
    27    14    15    1
    28    15    16    1
    29    24    25    1
    30    26    25    1
    31    26    17    1
    32    26    22    1
    33    12     1   ar
    34    11     5   ar
    35    15    10    1
    36    21    27    1
    37    21    28    1
@<TRIPOS>MOLECULE
*****
 33 37 0 0 0
SMALL
GASTEIGER

@<TRIPOS>ATOM
      1 C         139.8906  142.7854  164.0026 C.ar    1  UNL1        0.1115
      2 C         139.2618  143.8703  164.8257 C.ar    1  UNL1        0.1564
      3 F         138.3931  144.9019  164.1691 F       1  UNL1       -0.2028
      4 C         139.5017  143.9235  166.3054 C.ar    1  UNL1        0.0326
      5 C         140.3704  142.8920  166.9620 C.ar    1  UNL1        0.0214
      6 C         140.6102  142.9453  168.4418 C.ar    1  UNL1        0.0075
      7 C         141.4790  141.9136  169.0984 C.ar    1  UNL1        0.0702
      8 C         142.1078  140.8287  168.2752 C.ar    1  UNL1        0.2620
      9 O         142.9764  139.7971  168.9318 O.2     1  UNL1       -0.2669
     10 N         141.8679  140.7754  166.7955 N.ar    1  UNL1       -0.2909
     11 C         140.9992  141.8070  166.1389 C.ar    1  UNL1        0.0980
     12 C         140.7593  141.7537  164.6592 C.ar    1  UNL1        0.1697
     13 O         141.3882  140.6688  163.8360 O.3     1  UNL1       -0.4707
     14 C         142.2568  139.6372  164.4926 C.3     1  UNL1        0.2279
     15 C         142.4967  139.6905  165.9724 C.3     1  UNL1        0.1321
     16 C         143.3654  138.6589  166.6290 C.3     1  UNL1        0.0285
     17 C         139.7841  143.9151  158.8019 C.3     1  UNL1        0.1171
     18 C         139.2213  143.2134  157.6016 C.3     1  UNL1        0.0310
     19 C         138.5111  141.9022  157.7640 C.3     1  UNL1        0.0180
     20 C         138.3637  141.2927  159.1266 C.3     1  UNL1        0.0526
     21 N         137.6535  139.9815  159.2889 N.3     1  UNL1       -0.3221
     22 C         138.9265  141.9945  160.3269 C.3     1  UNL1        0.0379
     23 C         138.9352  141.6400  161.7844 C.3     1  UNL1        0.0923
     24 N         139.6507  142.7321  162.5228 N.pl3   1  UNL1       -0.3032
     25 C         140.0843  143.7615  161.5217 C.3     1  UNL1        0.0934
     26 C         139.6367  143.3057  160.1645 C.3     1  UNL1        0.0499
     27 H         136.8114  140.1179  159.8482 H       1  UNL1        0.1188
     28 H         138.2692  139.3171  159.7579 H       1  UNL1        0.1188
     29 C         140.2302  146.0780  157.4334 C.3     1  UNL1        0.1740
     30 O         140.4943  145.2263  158.6395 O.3     1  UNL1       -0.3535
     31 C         141.7188  141.9669  170.5781 C.2     1  UNL1        0.0775
     32 O         141.1173  140.9244  171.4734 O.co2   1  UNL1       -0.5444
     33 O         142.5601  143.0626  171.1625 O.co2   1  UNL1       -0.5444
@<TRIPOS>UNITY_ATOM_ATTR
32 1
charge -1
@<TRIPOS>BOND
     1    29    30    1
     2    17    30    1
     3    17    18    1
     4    18    19    1
     5    19    20    1
     6    20    21    1
     7    20    22    1
     8    22    23    1
     9    23    24    1
    10    24     1    1
    11     1     2   ar
    12     2     3    1
    13     2     4   ar
    14     4     5   ar
    15     5     6   ar
    16     6     7   ar
    17     7    31    1
    18    31    32   ar
    19    31    33   ar
    20     7     8   ar
    21     8     9    2
    22     8    10   ar
    23    10    11   ar
    24    11    12   ar
    25    12    13    1
    26    13    14    1
    27    14    15    1
    28    15    16    1
    29    24    25    1
    30    26    25    1
    31    26    17    1
    32    26    22    1
    33    12     1   ar
    34    11     5   ar
    35    15    10    1
    36    21    27    1
    37    21    28    1
@<TRIPOS>MOLECULE
*****
 33 37 0 0 0
SMALL
GASTEIGER

@<TRIPOS>ATOM
      1 C         140.8026  143.2395  164.7123 C.ar    1  UNL1        0.1115
      2 C         139.8923  144.4209  164.5520 C.ar    1  UNL1        0.1564
      3 F         139.0655  144.8934  165.7111 F       1  UNL1       -0.2028
      4 C         139.8087  145.1298  163.2327 C.ar    1  UNL1        0.0326
      5 C         140.6354  144.6573  162.0737 C.ar    1  UNL1        0.0214
      6 C         140.5518  145.3662  160.7545 C.ar    1  UNL1        0.0075
      7 C         141.3785  144.8937  159.5954 C.ar    1  UNL1        0.0702
      8 C         142.2888  143.7124  159.7557 C.ar    1  UNL1        0.2620
      9 O         143.1155  143.2399  158.5967 O.2     1  UNL1       -0.2669
     10 N         142.3724  143.0035  161.0750 N.ar    1  UNL1       -0.2909
     11 C         141.5457  143.4759  162.2340 C.ar    1  UNL1        0.0980
     12 C         141.6293  142.7670  163.5533 C.ar    1  UNL1        0.1697
     13 O         142.5396  141.5857  163.7135 O.3     1  UNL1       -0.4707
     14 C         143.3663  141.1132  162.5545 C.3     1  UNL1        0.2279
     15 C         143.2827  141.8221  161.2353 C.3     1  UNL1        0.1321
     16 C         144.1095  141.3496  160.0762 C.3     1  UNL1        0.0285
     17 C         139.7671  140.1669  168.9338 C.3     1  UNL1        0.1171
     18 C         140.4996  139.8825  170.2115 C.3     1  UNL1        0.0310
     19 C         141.8197  140.5414  170.4819 C.3     1  UNL1        0.0180
     20 C         142.4073  141.4848  169.4747 C.3     1  UNL1        0.0526
     21 N         143.7274  142.1437  169.7451 N.3     1  UNL1       -0.3221
     22 C         141.6749  141.7692  168.1970 C.3     1  UNL1        0.0379
     23 C         142.0033  142.6470  167.0258 C.3     1  UNL1        0.0923
     24 N         140.8862  142.5306  166.0316 N.pl3   1  UNL1       -0.3032
     25 C         139.8674  141.5809  166.5883 C.3     1  UNL1        0.0934
     26 C         140.3548  141.1103  167.9265 C.3     1  UNL1        0.0499
     27 H         143.5956  143.1527  169.8159 H       1  UNL1        0.1188
     28 H         144.3727  141.9378  168.9825 H       1  UNL1        0.1188
     29 C         138.1643  138.9217  167.3120 C.3     1  UNL1        0.1740
     30 O         138.4470  139.5080  168.6634 O.3     1  UNL1       -0.3535
     31 C         141.2949  145.6026  158.2762 C.2     1  UNL1        0.0775
     32 O         139.9904  145.6621  157.5381 O.co2   1  UNL1       -0.5444
     33 O         142.5158  146.2520  157.6950 O.co2   1  UNL1       -0.5444
@<TRIPOS>UNITY_ATOM_ATTR
32 1
charge -1
@<TRIPOS>BOND
     1    29    30    1
     2    17    30    1
     3    17    18    1
     4    18    19    1
     5    19    20    1
     6    20    21    1
     7    20    22    1
     8    22    23    1
     9    23    24    1
    10    24     1    1
    11     1     2   ar
    12     2     3    1
    13     2     4   ar
    14     4     5   ar
    15     5     6   ar
    16     6     7   ar
    17     7    31    1
    18    31    32   ar
    19    31    33   ar
    20     7     8   ar
    21     8     9    2
    22     8    10   ar
    23    10    11   ar
    24    11    12   ar
    25    12    13    1
    26    13    14    1
    27    14    15    1
    28    15    16    1
    29    24    25    1
    30    26    25    1
    31    26    17    1
    32    26    22    1
    33    12     1   ar
    34    11     5   ar
    35    15    10    1
    36    21    27    1
    37    21    28    1
@<TRIPOS>MOLECULE
*****
 33 37 0 0 0
SMALL
GASTEIGER

@<TRIPOS>ATOM
      1 C         140.2706  143.0607  163.9937 C.ar    1  UNL1        0.1115
      2 C         139.5336  144.0555  164.8406 C.ar    1  UNL1        0.1564
      3 F         138.7467  145.1556  164.1920 F       1  UNL1       -0.2028
      4 C         139.5835  143.9502  166.3361 C.ar    1  UNL1        0.0326
      5 C         140.3704  142.8502  166.9846 C.ar    1  UNL1        0.0214
      6 C         140.4204  142.7449  168.4801 C.ar    1  UNL1        0.0075
      7 C         141.2073  141.6448  169.1287 C.ar    1  UNL1        0.0702
      8 C         141.9443  140.6501  168.2818 C.ar    1  UNL1        0.2620
      9 O         142.7312  139.5500  168.9303 O.2     1  UNL1       -0.2669
     10 N         141.8943  140.7553  166.7863 N.ar    1  UNL1       -0.2909
     11 C         141.1074  141.8554  166.1377 C.ar    1  UNL1        0.0980
     12 C         141.0575  141.9606  164.6423 C.ar    1  UNL1        0.1697
     13 O         141.7945  140.9658  163.7954 O.3     1  UNL1       -0.4707
     14 C         142.5813  139.8658  164.4439 C.3     1  UNL1        0.2279
     15 C         142.6313  139.7606  165.9394 C.3     1  UNL1        0.1321
     16 C         143.4182  138.6605  166.5880 C.3     1  UNL1        0.0285
     17 C         139.1718  142.2423  158.8500 C.3     1  UNL1        0.1171
     18 C         139.5929  142.9218  157.5809 C.3     1  UNL1        0.0310
     19 C         140.5216  144.0987  157.6327 C.3     1  UNL1        0.0180
     20 C         141.0292  144.5959  158.9536 C.3     1  UNL1        0.0526
     21 N         141.9578  145.7727  159.0055 N.3     1  UNL1       -0.3221
     22 C         140.6081  143.9164  160.2228 C.3     1  UNL1        0.0379
     23 C         140.9425  144.1799  161.6611 C.3     1  UNL1        0.0923
     24 N         140.2206  143.1660  162.4982 N.pl3   1  UNL1       -0.3032
     25 C         139.4400  142.2758  161.5773 C.3     1  UNL1        0.0934
     26 C         139.6794  142.7395  160.1710 C.3     1  UNL1        0.0499
     27 H         142.8604  145.4774  159.3777 H       1  UNL1        0.1188
     28 H         141.5606  146.4931  159.6085 H       1  UNL1        0.1188
     29 C         138.7729  139.6813  159.0294 C.3     1  UNL1        0.1740
     30 O         138.2432  141.0655  158.7982 O.3     1  UNL1       -0.3535
     31 C         141.2573  141.5396  170.6241 C.2     1  UNL1        0.0775
     32 O         142.1558  142.4477  171.4103 O.co2   1  UNL1       -0.5444
     33 O         140.4088  140.5262  171.3334 O.co2   1  UNL1       -0.5444
@<TRIPOS>UNITY_ATOM_ATTR
32 1
charge -1
@<TRIPOS>BOND
     1    29    30    1
     2    17    30    1
     3    17    18    1
     4    18    19    1
     5    19    20    1
     6    20    21    1
     7    20    22    1
     8    22    23    1
     9    23    24    1
    10    24     1    1
    11     1     2   ar
    12     2     3    1
    13     2     4   ar
    14     4     5   ar
    15     5     6   ar
    16     6     7   ar
    17     7    31    1
    18    31    32   ar
    19    31    33   ar
    20     7     8   ar
    21     8     9    2
    22     8    10   ar
    23    10    11   ar
    24    11    12   ar
    25    12    13    1
    26    13    14    1
    27    14    15    1
    28    15    16    1
    29    24    25    1
    30    26    25    1
    31    26    17    1
    32    26    22    1
    33    12     1   ar
    34    11     5   ar
    35    15    10    1
    36    21    27    1
    37    21    28    1
@<TRIPOS>MOLECULE
*****
 33 37 0 0 0
SMALL
GASTEIGER

@<TRIPOS>ATOM
      1 C         141.0600  141.2690  163.9237 C.ar    1  UNL1        0.1115
      2 C         141.9570  142.3421  164.4656 C.ar    1  UNL1        0.1564
      3 F         142.8667  143.0966  163.5418 F       1  UNL1       -0.2028
      4 C         141.9445  142.6607  165.9313 C.ar    1  UNL1        0.0326
      5 C         141.0349  141.9062  166.8551 C.ar    1  UNL1        0.0214
      6 C         141.0224  142.2249  168.3208 C.ar    1  UNL1        0.0075
      7 C         140.1127  141.4703  169.2446 C.ar    1  UNL1        0.0702
      8 C         139.2157  140.3972  168.7027 C.ar    1  UNL1        0.2620
      9 O         138.3061  139.6428  169.6264 O.2     1  UNL1       -0.2669
     10 N         139.2282  140.0786  167.2369 N.ar    1  UNL1       -0.2909
     11 C         140.1378  140.8331  166.3132 C.ar    1  UNL1        0.0980
     12 C         140.1503  140.5145  164.8475 C.ar    1  UNL1        0.1697
     13 O         139.2533  139.4414  164.3055 O.3     1  UNL1       -0.4707
     14 C         138.3437  138.6869  165.2293 C.3     1  UNL1        0.2279
     15 C         138.3312  139.0055  166.6950 C.3     1  UNL1        0.1321
     16 C         137.4215  138.2510  167.6188 C.3     1  UNL1        0.0285
     17 C         139.8558  140.9967  158.7458 C.3     1  UNL1        0.1171
     18 C         140.4901  140.3145  157.5701 C.3     1  UNL1        0.0310
     19 C         141.7370  139.5020  157.7574 C.3     1  UNL1        0.0180
     20 C         142.3496  139.3716  159.1204 C.3     1  UNL1        0.0526
     21 N         143.5965  138.5591  159.3077 N.3     1  UNL1       -0.3221
     22 C         141.7153  140.0538  160.2961 C.3     1  UNL1        0.0379
     23 C         142.0887  140.1058  161.7479 C.3     1  UNL1        0.0923
     24 N         141.0725  140.9504  162.4580 N.pl3   1  UNL1       -0.3032
     25 C         140.0712  141.4204  161.4449 C.3     1  UNL1        0.0934
     26 C         140.4684  140.8663  160.1088 C.3     1  UNL1        0.0499
     27 H         143.3953  137.7617  159.9111 H       1  UNL1        0.1188
     28 H         144.3179  139.1377  159.7382 H       1  UNL1        0.1188
     29 C         138.4960  142.7530  157.3982 C.3     1  UNL1        0.1740
     30 O         138.6089  141.8092  158.5585 O.3     1  UNL1       -0.3535
     31 C         140.1002  141.7889  170.7103 C.2     1  UNL1        0.0775
     32 O         140.6982  140.8256  171.6924 O.co2   1  UNL1       -0.5444
     33 O         139.4896  143.0708  171.1940 O.co2   1  UNL1       -0.5444
@<TRIPOS>UNITY_ATOM_ATTR
32 1
charge -1
@<TRIPOS>BOND
     1    29    30    1
     2    17    30    1
     3    17    18    1
     4    18    19    1
     5    19    20    1
     6    20    21    1
     7    20    22    1
     8    22    23    1
     9    23    24    1
    10    24     1    1
    11     1     2   ar
    12     2     3    1
    13     2     4   ar
    14     4     5   ar
    15     5     6   ar
    16     6     7   ar
    17     7    31    1
    18    31    32   ar
    19    31    33   ar
    20     7     8   ar
    21     8     9    2
    22     8    10   ar
    23    10    11   ar
    24    11    12   ar
    25    12    13    1
    26    13    14    1
    27    14    15    1
    28    15    16    1
    29    24    25    1
    30    26    25    1
    31    26    17    1
    32    26    22    1
    33    12     1   ar
    34    11     5   ar
    35    15    10    1
    36    21    27    1
    37    21    28    1
@<TRIPOS>MOLECULE
*****
 33 37 0 0 0
SMALL
GASTEIGER

@<TRIPOS>ATOM
      1 C         140.5878  143.2009  164.6026 C.ar    1  UNL1        0.1115
      2 C         139.8158  144.4647  164.3646 C.ar    1  UNL1        0.1564
      3 F         139.0076  145.0702  165.4739 F       1  UNL1       -0.2028
      4 C         139.8518  145.1232  163.0174 C.ar    1  UNL1        0.0326
      5 C         140.6599  144.5179  161.9081 C.ar    1  UNL1        0.0214
      6 C         140.6960  145.1764  160.5608 C.ar    1  UNL1        0.0075
      7 C         141.5041  144.5710  159.4515 C.ar    1  UNL1        0.0702
      8 C         142.2761  143.3071  159.6895 C.ar    1  UNL1        0.2620
      9 O         143.0842  142.7018  158.5803 O.2     1  UNL1       -0.2669
     10 N         142.2401  142.6487  161.0368 N.ar    1  UNL1       -0.2909
     11 C         141.4320  143.2540  162.1461 C.ar    1  UNL1        0.0980
     12 C         141.3959  142.5955  163.4933 C.ar    1  UNL1        0.1697
     13 O         142.1679  141.3317  163.7313 O.3     1  UNL1       -0.4707
     14 C         142.9760  140.7263  162.6220 C.3     1  UNL1        0.2279
     15 C         143.0121  141.3848  161.2748 C.3     1  UNL1        0.1321
     16 C         143.8202  140.7794  160.1655 C.3     1  UNL1        0.0285
     17 C         141.5619  141.8662  169.6627 C.3     1  UNL1        0.1171
     18 C         140.9822  140.8423  170.5930 C.3     1  UNL1        0.0310
     19 C         139.8853  139.9350  170.1201 C.3     1  UNL1        0.0180
     20 C         139.3681  140.0515  168.7170 C.3     1  UNL1        0.0526
     21 N         138.2712  139.1442  168.2442 N.3     1  UNL1       -0.3221
     22 C         139.9478  141.0754  167.7867 C.3     1  UNL1        0.0379
     23 C         139.6431  141.4213  166.3593 C.3     1  UNL1        0.0923
     24 N         140.5517  142.5424  165.9499 N.pl3   1  UNL1       -0.3032
     25 C         141.4179  142.8894  167.1243 C.3     1  UNL1        0.0934
     26 C         141.0446  141.9828  168.2595 C.3     1  UNL1        0.0499
     27 H         138.6218  138.5496  167.4932 H       1  UNL1        0.1188
     28 H         137.4919  139.7043  167.8986 H       1  UNL1        0.1188
     29 C         144.0816  142.4928  169.7527 C.3     1  UNL1        0.1740
     30 O         142.6587  142.7736  170.1355 O.3     1  UNL1       -0.3535
     31 C         141.5402  145.2294  158.1043 C.2     1  UNL1        0.0775
     32 O         142.5450  146.3070  157.8228 O.co2   1  UNL1       -0.5444
     33 O         140.5714  144.8104  157.0385 O.co2   1  UNL1       -0.5444
@<TRIPOS>UNITY_ATOM_ATTR
32 1
charge -1
@<TRIPOS>BOND
     1    29    30    1
     2    17    30    1
     3    17    18    1
     4    18    19    1
     5    19    20    1
     6    20    21    1
     7    20    22    1
     8    22    23    1
     9    23    24    1
    10    24     1    1
    11     1     2   ar
    12     2     3    1
    13     2     4   ar
    14     4     5   ar
    15     5     6   ar
    16     6     7   ar
    17     7    31    1
    18    31    32   ar
    19    31    33   ar
    20     7     8   ar
    21     8     9    2
    22     8    10   ar
    23    10    11   ar
    24    11    12   ar
    25    12    13    1
    26    13    14    1
    27    14    15    1
    28    15    16    1
    29    24    25    1
    30    26    25    1
    31    26    17    1
    32    26    22    1
    33    12     1   ar
    34    11     5   ar
    35    15    10    1
    36    21    27    1
    37    21    28    1
@<TRIPOS>MOLECULE
*****
 33 37 0 0 0
SMALL
GASTEIGER

@<TRIPOS>ATOM
      1 C         139.8296  139.1915  162.9279 C.ar    1  UNL1        0.1115
      2 C         138.7438  138.4021  163.5971 C.ar    1  UNL1        0.1564
      3 F         137.8550  137.5092  162.7828 F       1  UNL1       -0.2028
      4 C         138.5467  138.5056  165.0804 C.ar    1  UNL1        0.0326
      5 C         139.4354  139.3985  165.8946 C.ar    1  UNL1        0.0214
      6 C         139.2382  139.5020  167.3780 C.ar    1  UNL1        0.0075
      7 C         140.1270  140.3949  168.1922 C.ar    1  UNL1        0.0702
      8 C         141.2128  141.1843  167.5231 C.ar    1  UNL1        0.2620
      9 O         142.1015  142.0771  168.3373 O.2     1  UNL1       -0.2669
     10 N         141.4100  141.0808  166.0397 N.ar    1  UNL1       -0.2909
     11 C         140.5213  140.1879  165.2255 C.ar    1  UNL1        0.0980
     12 C         140.7184  140.0844  163.7421 C.ar    1  UNL1        0.1697
     13 O         141.8042  140.8738  163.0729 O.3     1  UNL1       -0.4707
     14 C         142.6929  141.7666  163.8871 C.3     1  UNL1        0.2279
     15 C         142.4958  141.8701  165.3705 C.3     1  UNL1        0.1321
     16 C         143.3845  142.7630  166.1847 C.3     1  UNL1        0.0285
     17 C         139.1840  139.5221  157.6545 C.3     1  UNL1        0.1171
     18 C         140.0131  139.0910  156.4812 C.3     1  UNL1        0.0310
     19 C         141.3299  138.4079  156.7039 C.3     1  UNL1        0.0180
     20 C         141.8176  138.1560  158.0998 C.3     1  UNL1        0.0526
     21 N         143.1343  137.4730  158.3224 N.3     1  UNL1       -0.3221
     22 C         140.9885  138.5872  159.2731 C.3     1  UNL1        0.0379
     23 C         141.2079  138.4746  160.7527 C.3     1  UNL1        0.0923
     24 N         140.0267  139.0880  161.4445 N.pl3   1  UNL1       -0.3032
     25 C         139.0773  139.5797  160.3924 C.3     1  UNL1        0.0934
     26 C         139.6717  139.2702  159.0504 C.3     1  UNL1        0.0499
     27 H         142.9794  136.5802  158.7907 H       1  UNL1        0.1188
     28 H         143.7294  138.0631  158.9038 H       1  UNL1        0.1188
     29 C         137.6371  141.0008  156.1813 C.3     1  UNL1        0.1740
     30 O         137.8673  140.2052  157.4319 O.3     1  UNL1       -0.3535
     31 C         139.9299  140.4984  169.6756 C.2     1  UNL1        0.0775
     32 O         139.2708  141.7117  170.2618 O.co2   1  UNL1       -0.5444
     33 O         140.3918  139.3887  170.5728 O.co2   1  UNL1       -0.5444
@<TRIPOS>UNITY_ATOM_ATTR
32 1
charge -1
@<TRIPOS>BOND
     1    29    30    1
     2    17    30    1
     3    17    18    1
     4    18    19    1
     5    19    20    1
     6    20    21    1
     7    20    22    1
     8    22    23    1
     9    23    24    1
    10    24     1    1
    11     1     2   ar
    12     2     3    1
    13     2     4   ar
    14     4     5   ar
    15     5     6   ar
    16     6     7   ar
    17     7    31    1
    18    31    32   ar
    19    31    33   ar
    20     7     8   ar
    21     8     9    2
    22     8    10   ar
    23    10    11   ar
    24    11    12   ar
    25    12    13    1
    26    13    14    1
    27    14    15    1
    28    15    16    1
    29    24    25    1
    30    26    25    1
    31    26    17    1
    32    26    22    1
    33    12     1   ar
    34    11     5   ar
    35    15    10    1
    36    21    27    1
    37    21    28    1
@<TRIPOS>MOLECULE
*****
 33 37 0 0 0
SMALL
GASTEIGER

@<TRIPOS>ATOM
      1 C         140.8747  139.3260  162.9897 C.ar    1  UNL1        0.1115
      2 C         140.1266  138.4023  163.9046 C.ar    1  UNL1        0.1564
      3 F         139.2374  137.3382  163.3328 F       1  UNL1       -0.2028
      4 C         140.2677  138.5428  165.3914 C.ar    1  UNL1        0.0326
      5 C         141.1569  139.6069  165.9631 C.ar    1  UNL1        0.0214
      6 C         141.2979  139.7473  167.4499 C.ar    1  UNL1        0.0075
      7 C         142.1872  140.8115  168.0217 C.ar    1  UNL1        0.0702
      8 C         142.9353  141.7352  167.1067 C.ar    1  UNL1        0.2620
      9 O         143.8244  142.7993  167.6785 O.2     1  UNL1       -0.2669
     10 N         142.7942  141.5947  165.6200 N.ar    1  UNL1       -0.2909
     11 C         141.9050  140.5306  165.0482 C.ar    1  UNL1        0.0980
     12 C         141.7639  140.3902  163.5615 C.ar    1  UNL1        0.1697
     13 O         142.5120  141.3139  162.6465 O.3     1  UNL1       -0.4707
     14 C         143.4012  142.3780  163.2183 C.3     1  UNL1        0.2279
     15 C         143.5423  142.5184  164.7051 C.3     1  UNL1        0.1321
     16 C         144.4315  143.5826  165.2768 C.3     1  UNL1        0.0285
     17 C         141.6870  138.0885  157.8766 C.3     1  UNL1        0.1171
     18 C         140.9185  138.3465  156.6146 C.3     1  UNL1        0.0310
     19 C         139.6259  139.1058  156.6655 C.3     1  UNL1        0.0180
     20 C         139.1017  139.6071  157.9785 C.3     1  UNL1        0.0526
     21 N         137.8091  140.3664  158.0294 N.3     1  UNL1       -0.3221
     22 C         139.8702  139.3491  159.2405 C.3     1  UNL1        0.0379
     23 C         139.6050  139.7173  160.6703 C.3     1  UNL1        0.0923
     24 N         140.7336  139.1856  161.5030 N.pl3   1  UNL1       -0.3032
     25 C         141.6964  138.4888  160.5878 C.3     1  UNL1        0.0934
     26 C         141.1628  138.5898  159.1896 C.3     1  UNL1        0.0499
     27 H         137.9866  141.3189  158.3482 H       1  UNL1        0.1188
     28 H         137.1691  139.9051  158.6760 H       1  UNL1        0.1188
     29 C         143.0719  136.0578  157.0353 C.3     1  UNL1        0.1740
     30 O         142.9796  137.3293  157.8257 O.3     1  UNL1       -0.3535
     31 C         142.3282  140.9520  169.5084 C.2     1  UNL1        0.0775
     32 O         143.2964  140.0831  170.2553 O.co2   1  UNL1       -0.5444
     33 O         141.5012  141.9612  170.2482 O.co2   1  UNL1       -0.5444
@<TRIPOS>UNITY_ATOM_ATTR
32 1
charge -1
@<TRIPOS>BOND
     1    29    30    1
     2    17    30    1
     3    17    18    1
     4    18    19    1
     5    19    20    1
     6    20    21    1
     7    20    22    1
     8    22    23    1
     9    23    24    1
    10    24     1    1
    11     1     2   ar
    12     2     3    1
    13     2     4   ar
    14     4     5   ar
    15     5     6   ar
    16     6     7   ar
    17     7    31    1
    18    31    32   ar
    19    31    33   ar
    20     7     8   ar
    21     8     9    2
    22     8    10   ar
    23    10    11   ar
    24    11    12   ar
    25    12    13    1
    26    13    14    1
    27    14    15    1
    28    15    16    1
    29    24    25    1
    30    26    25    1
    31    26    17    1
    32    26    22    1
    33    12     1   ar
    34    11     5   ar
    35    15    10    1
    36    21    27    1
    37    21    28    1
